292

Si  -12.275352   -6.806918   -9.541935
Si  -12.275352   -9.541935   -6.806918
Si  -13.606678   -8.289517   -5.357348
Si  -12.252634   -9.546041   -1.338181
Si  -14.971726   -7.041552   -1.580932
Si  -13.644954   -8.186451   -0.036913
Si  -12.287589   -9.542562    4.124390
Si  -13.627789   -8.340128    5.610307
Si  -13.606678   -5.357348   -8.289517
Si  -12.252634   -1.338181   -9.546041
Si  -14.971726   -1.580932   -7.041552
Si  -14.967589   -4.320601   -4.320601
Si  -15.003453   -1.438735   -1.438735
Si  -13.653709   -5.421988    2.682531
Si  -15.006061   -4.146759    1.276541
Si  -15.006061   -1.276541    4.146759
Si  -13.653709   -2.682531    5.421988
Si  -13.627789   -5.610307    8.340128
Si  -12.287589   -4.124390    9.542562
Si  -13.644954   -0.036913   -8.186451
Si  -12.287589    4.124390   -9.542562
Si  -13.653709    2.682531   -5.421988
Si  -15.006061    1.276541   -4.146759
Si  -15.006061    4.146759   -1.276541
Si  -15.003453    1.438735    1.438735
Si  -14.967589    4.320601    4.320601
Si  -13.644954    0.036913    8.186451
Si  -14.971726    1.580932    7.041552
Si  -12.252634    1.338181    9.546041
Si  -13.627789    5.610307   -8.340128
Si  -13.627789    8.340128   -5.610307
Si  -13.653709    5.421988   -2.682531
Si  -12.287589    9.542562   -4.124390
Si  -13.644954    8.186451    0.036913
Si  -14.971726    7.041552    1.580932
Si  -12.252634    9.546041    1.338181
Si  -13.606678    8.289517    5.357348
Si  -13.606678    5.357348    8.289517
Si  -12.275352    9.541935    6.806918
Si  -12.275352    6.806918    9.541935
Si   -6.806918  -12.275352   -9.541935
Si   -9.541935  -12.275352   -6.806918
Si   -8.289517  -13.606678   -5.357348
Si   -7.041552  -14.971726   -1.580932
Si   -9.546041  -12.252634   -1.338181
Si   -8.186451  -13.644954   -0.036913
Si   -9.542562  -12.287589    4.124390
Si   -8.340128  -13.627789    5.610307
Si   -6.806918   -9.541935  -12.275352
Si   -9.541935   -6.806918  -12.275352
Si   -9.540822   -9.540822   -9.540822
Si  -10.901430  -10.901430   -5.490095
Si  -10.904179  -10.904179    0.000953
Si  -10.901731  -10.901731    5.430560
Si   -8.172048  -10.889416    8.172048
Si  -10.889416   -8.172048    8.172048
Si   -8.172048   -8.172048   10.889416
Si   -8.289517   -5.357348  -13.606678
Si   -7.041552   -1.580932  -14.971726
Si   -9.546041   -1.338181  -12.252634
Si  -10.901430   -5.490095  -10.901430
Si  -10.901731   -5.430560   10.901731
Si   -8.340128   -5.610307   13.627789
Si   -9.542562   -4.124390   12.287589
Si   -8.186451   -0.036913  -13.644954
Si   -9.542562    4.124390  -12.287589
Si  -10.904179    0.000953  -10.904179
Si  -10.904179   -0.000953   10.904179
Si   -8.186451    0.036913   13.644954
Si   -9.546041    1.338181   12.252634
Si   -7.041552    1.580932   14.971726
Si   -8.340128    5.610307  -13.627789
Si  -10.901731    5.430560  -10.901731
Si   -8.172048    8.172048  -10.889416
Si  -10.889416    8.172048   -8.172048
Si   -9.540822    9.540822    9.540822
Si  -10.901430    5.490095   10.901430
Si   -8.289517    5.357348   13.606678
Si   -9.541935    6.806918   12.275352
Si   -6.806918    9.541935   12.275352
Si   -8.172048   10.889416   -8.172048
Si  -10.901731   10.901731   -5.430560
Si   -8.340128   13.627789   -5.610307
Si   -9.542562   12.287589   -4.124390
Si  -10.904179   10.904179   -0.000953
Si   -8.186451   13.644954    0.036913
Si   -9.546041   12.252634    1.338181
Si   -7.041552   14.971726    1.580932
Si  -10.901430   10.901430    5.490095
Si   -8.289517   13.606678    5.357348
Si   -9.541935   12.275352    6.806918
Si   -6.806918   12.275352    9.541935
Si   -5.357348  -13.606678   -8.289517
Si   -1.338181  -12.252634   -9.546041
Si   -1.580932  -14.971726   -7.041552
Si   -4.320601  -14.967589   -4.320601
Si   -1.438735  -15.003453   -1.438735
Si   -5.421988  -13.653709    2.682531
Si   -4.146759  -15.006061    1.276541
Si   -1.276541  -15.006061    4.146759
Si   -2.682531  -13.653709    5.421988
Si   -5.610307  -13.627789    8.340128
Si   -4.124390  -12.287589    9.542562
Si   -5.357348   -8.289517  -13.606678
Si   -1.580932   -7.041552  -14.971726
Si   -1.338181   -9.546041  -12.252634
Si   -5.490095  -10.901430  -10.901430
Si   -5.430560  -10.901731   10.901731
Si   -5.610307   -8.340128   13.627789
Si   -4.124390   -9.542562   12.287589
Si   -4.320601   -4.320601  -14.967589
Si   -1.438735   -1.438735  -15.003453
Si   -2.682531   -5.421988   13.653709
Si   -5.421988   -2.682531   13.653709
Si   -1.276541   -4.146759   15.006061
Si   -4.146759   -1.276541   15.006061
Si   -5.421988    2.682531  -13.653709
Si   -4.146759    1.276541  -15.006061
Si   -1.276541    4.146759  -15.006061
Si   -1.438735    1.438735   15.003453
Si   -4.320601    4.320601   14.967589
Si   -2.682531    5.421988  -13.653709
Si   -5.610307    8.340128  -13.627789
Si   -4.124390    9.542562  -12.287589
Si   -5.357348    8.289517   13.606678
Si   -1.338181    9.546041   12.252634
Si   -1.580932    7.041552   14.971726
Si   -5.430560   10.901731  -10.901731
Si   -5.610307   13.627789   -8.340128
Si   -4.124390   12.287589   -9.542562
Si   -2.682531   13.653709   -5.421988
Si   -5.421988   13.653709   -2.682531
Si   -1.276541   15.006061   -4.146759
Si   -4.146759   15.006061   -1.276541
Si   -1.438735   15.003453    1.438735
Si   -4.320601   14.967589    4.320601
Si   -5.357348   13.606678    8.289517
Si   -1.580932   14.971726    7.041552
Si   -1.338181   12.252634    9.546041
Si   -5.490095   10.901430   10.901430
Si   -0.036913  -13.644954   -8.186451
Si    4.124390  -12.287589   -9.542562
Si    2.682531  -13.653709   -5.421988
Si    1.276541  -15.006061   -4.146759
Si    4.146759  -15.006061   -1.276541
Si    1.438735  -15.003453    1.438735
Si    4.320601  -14.967589    4.320601
Si    0.036913  -13.644954    8.186451
Si    1.580932  -14.971726    7.041552
Si    1.338181  -12.252634    9.546041
Si   -0.036913   -8.186451  -13.644954
Si    4.124390   -9.542562  -12.287589
Si    0.000953  -10.904179  -10.904179
Si   -0.000953  -10.904179   10.904179
Si    0.036913   -8.186451   13.644954
Si    1.338181   -9.546041   12.252634
Si    1.580932   -7.041552   14.971726
Si    2.682531   -5.421988  -13.653709
Si    1.276541   -4.146759  -15.006061
Si    4.146759   -1.276541  -15.006061
Si    4.320601   -4.320601   14.967589
Si    1.438735   -1.438735   15.003453
Si    1.438735    1.438735  -15.003453
Si    4.320601    4.320601  -14.967589
Si    4.146759    1.276541   15.006061
Si    1.276541    4.146759   15.006061
Si    0.036913    8.186451  -13.644954
Si    1.580932    7.041552  -14.971726
Si    1.338181    9.546041  -12.252634
Si    2.682531    5.421988   13.653709
Si   -0.036913    8.186451   13.644954
Si    4.124390    9.542562   12.287589
Si   -0.000953   10.904179  -10.904179
Si    0.036913   13.644954   -8.186451
Si    1.338181   12.252634   -9.546041
Si    1.580932   14.971726   -7.041552
Si    4.320601   14.967589   -4.320601
Si    1.438735   15.003453   -1.438735
Si    4.146759   15.006061    1.276541
Si    1.276541   15.006061    4.146759
Si    2.682531   13.653709    5.421988
Si   -0.036913   13.644954    8.186451
Si    4.124390   12.287589    9.542562
Si    0.000953   10.904179   10.904179
Si    5.610307  -13.627789   -8.340128
Si    8.340128  -13.627789   -5.610307
Si    5.421988  -13.653709   -2.682531
Si    9.542562  -12.287589   -4.124390
Si    8.186451  -13.644954    0.036913
Si    7.041552  -14.971726    1.580932
Si    9.546041  -12.252634    1.338181
Si    8.289517  -13.606678    5.357348
Si    5.357348  -13.606678    8.289517
Si    9.541935  -12.275352    6.806918
Si    6.806918  -12.275352    9.541935
Si    5.610307   -8.340128  -13.627789
Si    5.430560  -10.901731  -10.901731
Si    8.172048   -8.172048  -10.889416
Si    8.172048  -10.889416   -8.172048
Si    9.540822   -9.540822    9.540822
Si    5.490095  -10.901430   10.901430
Si    5.357348   -8.289517   13.606678
Si    6.806918   -9.541935   12.275352
Si    9.541935   -6.806918   12.275352
Si    8.340128   -5.610307  -13.627789
Si    5.421988   -2.682531  -13.653709
Si    9.542562   -4.124390  -12.287589
Si    8.289517   -5.357348   13.606678
Si    9.546041   -1.338181   12.252634
Si    7.041552   -1.580932   14.971726
Si    8.186451    0.036913  -13.644954
Si    7.041552    1.580932  -14.971726
Si    9.546041    1.338181  -12.252634
Si    8.186451   -0.036913   13.644954
Si    5.421988    2.682531   13.653709
Si    9.542562    4.124390   12.287589
Si    8.289517    5.357348  -13.606678
Si    5.357348    8.289517  -13.606678
Si    9.541935    6.806918  -12.275352
Si    6.806918    9.541935  -12.275352
Si    9.540822    9.540822   -9.540822
Si    8.172048    8.172048   10.889416
Si    8.340128    5.610307   13.627789
Si    5.610307    8.340128   13.627789
Si    5.490095   10.901430  -10.901430
Si    5.357348   13.606678   -8.289517
Si    6.806918   12.275352   -9.541935
Si    9.541935   12.275352   -6.806918
Si    8.289517   13.606678   -5.357348
Si    9.546041   12.252634   -1.338181
Si    7.041552   14.971726   -1.580932
Si    8.186451   13.644954   -0.036913
Si    5.421988   13.653709    2.682531
Si    9.542562   12.287589    4.124390
Si    8.340128   13.627789    5.610307
Si    8.172048   10.889416    8.172048
Si    5.610307   13.627789    8.340128
Si    5.430560   10.901731   10.901731
Si   10.889416   -8.172048   -8.172048
Si   10.901731  -10.901731   -5.430560
Si   13.627789   -8.340128   -5.610307
Si   12.287589   -9.542562   -4.124390
Si   10.904179  -10.904179   -0.000953
Si   13.644954   -8.186451    0.036913
Si   12.252634   -9.546041    1.338181
Si   14.971726   -7.041552    1.580932
Si   10.901430  -10.901430    5.490095
Si   13.606678   -8.289517    5.357348
Si   12.275352   -9.541935    6.806918
Si   12.275352   -6.806918    9.541935
Si   10.901731   -5.430560  -10.901731
Si   13.627789   -5.610307   -8.340128
Si   12.287589   -4.124390   -9.542562
Si   13.653709   -2.682531   -5.421988
Si   13.653709   -5.421988   -2.682531
Si   15.006061   -1.276541   -4.146759
Si   15.006061   -4.146759   -1.276541
Si   15.003453   -1.438735    1.438735
Si   14.967589   -4.320601    4.320601
Si   13.606678   -5.357348    8.289517
Si   14.971726   -1.580932    7.041552
Si   12.252634   -1.338181    9.546041
Si   10.901430   -5.490095   10.901430
Si   10.904179   -0.000953  -10.904179
Si   13.644954    0.036913   -8.186451
Si   12.252634    1.338181   -9.546041
Si   14.971726    1.580932   -7.041552
Si   14.967589    4.320601   -4.320601
Si   15.003453    1.438735   -1.438735
Si   15.006061    4.146759    1.276541
Si   15.006061    1.276541    4.146759
Si   13.653709    2.682531    5.421988
Si   13.644954   -0.036913    8.186451
Si   12.287589    4.124390    9.542562
Si   10.904179    0.000953   10.904179
Si   10.901430    5.490095  -10.901430
Si   13.606678    5.357348   -8.289517
Si   12.275352    6.806918   -9.541935
Si   12.275352    9.541935   -6.806918
Si   13.606678    8.289517   -5.357348
Si   14.971726    7.041552   -1.580932
Si   12.252634    9.546041   -1.338181
Si   13.644954    8.186451   -0.036913
Si   13.653709    5.421988    2.682531
Si   12.287589    9.542562    4.124390
Si   13.627789    8.340128    5.610307
Si   13.627789    5.610307    8.340128
Si   10.889416    8.172048    8.172048
Si   10.901731    5.430560   10.901731
Si   10.901430   10.901430   -5.490095
Si   10.904179   10.904179    0.000953
Si   10.901731   10.901731    5.430560
