100

 H   -4.931863   -4.931863   -4.931863
 H   -6.321488   -6.321488    0.833465
 H   -3.577742   -6.310007    3.577742
 H   -6.310007   -3.577742    3.577742
 H   -3.577742   -3.577742    6.310007
 H   -6.321488    0.833465   -6.321488
 H   -3.577742    3.577742   -6.310007
 H   -6.310007    3.577742   -3.577742
 H   -4.931863    4.931863    4.931863
 H   -6.321488   -0.833465    6.321488
 H   -3.577742    6.310007   -3.577742
 H   -6.321488    6.321488   -0.833465
 H    0.833465   -6.321488   -6.321488
 H    3.577742   -3.577742   -6.310007
 H    3.577742   -6.310007   -3.577742
 H    4.931863   -4.931863    4.931863
 H   -0.833465   -6.321488    6.321488
 H    4.931863    4.931863   -4.931863
 H    3.577742    3.577742    6.310007
 H   -0.833465    6.321488   -6.321488
 H    3.577742    6.310007    3.577742
 H    0.833465    6.321488    6.321488
 H    6.310007   -3.577742   -3.577742
 H    6.321488   -6.321488   -0.833465
 H    6.321488   -0.833465   -6.321488
 H    6.310007    3.577742    3.577742
 H    6.321488    0.833465    6.321488
 H    6.321488    6.321488    0.833465
 H   -7.943017   -0.829099   -3.546897
 H   -7.402561   -2.481716   -5.212022
 H   -7.402561   -5.212022   -2.481716
 H   -7.943017   -3.546897   -0.829099
 H   -7.689641   -0.518133    2.218695
 H   -7.689641   -2.218695    0.518133
 H   -7.689641    0.518133   -2.218695
 H   -7.689641    2.218695   -0.518133
 H   -7.402561    5.212022    2.481716
 H   -7.943017    3.546897    0.829099
 H   -7.943017    0.829099    3.546897
 H   -7.402561    2.481716    5.212022
 H   -2.481716   -7.402561   -5.212022
 H   -0.829099   -7.943017   -3.546897
 H   -3.546897   -7.943017   -0.829099
 H   -5.212022   -7.402561   -2.481716
 H   -2.218695   -7.689641    0.518133
 H   -0.518133   -7.689641    2.218695
 H   -0.829099   -3.546897   -7.943017
 H   -2.481716   -5.212022   -7.402561
 H   -5.212022   -2.481716   -7.402561
 H   -3.546897   -0.829099   -7.943017
 H   -0.518133   -2.218695    7.689641
 H   -2.218695   -0.518133    7.689641
 H   -0.518133    2.218695   -7.689641
 H   -2.218695    0.518133   -7.689641
 H   -3.546897    0.829099    7.943017
 H   -5.212022    2.481716    7.402561
 H   -0.829099    3.546897    7.943017
 H   -2.481716    5.212022    7.402561
 H   -2.218695    7.689641   -0.518133
 H   -0.518133    7.689641   -2.218695
 H   -5.212022    7.402561    2.481716
 H   -3.546897    7.943017    0.829099
 H   -2.481716    7.402561    5.212022
 H   -0.829099    7.943017    3.546897
 H    2.218695   -7.689641   -0.518133
 H    0.518133   -7.689641   -2.218695
 H    3.546897   -7.943017    0.829099
 H    5.212022   -7.402561    2.481716
 H    2.481716   -7.402561    5.212022
 H    0.829099   -7.943017    3.546897
 H    0.518133   -2.218695   -7.689641
 H    2.218695   -0.518133   -7.689641
 H    2.481716   -5.212022    7.402561
 H    0.829099   -3.546897    7.943017
 H    5.212022   -2.481716    7.402561
 H    3.546897   -0.829099    7.943017
 H    5.212022    2.481716   -7.402561
 H    3.546897    0.829099   -7.943017
 H    0.829099    3.546897   -7.943017
 H    2.481716    5.212022   -7.402561
 H    2.218695    0.518133    7.689641
 H    0.518133    2.218695    7.689641
 H    0.829099    7.943017   -3.546897
 H    2.481716    7.402561   -5.212022
 H    3.546897    7.943017   -0.829099
 H    5.212022    7.402561   -2.481716
 H    0.518133    7.689641    2.218695
 H    2.218695    7.689641    0.518133
 H    7.689641   -0.518133   -2.218695
 H    7.689641   -2.218695   -0.518133
 H    7.943017   -3.546897    0.829099
 H    7.402561   -5.212022    2.481716
 H    7.943017   -0.829099    3.546897
 H    7.402561   -2.481716    5.212022
 H    7.402561    2.481716   -5.212022
 H    7.943017    0.829099   -3.546897
 H    7.402561    5.212022   -2.481716
 H    7.943017    3.546897   -0.829099
 H    7.689641    2.218695    0.518133
 H    7.689641    0.518133    2.218695
