223
Geometry Step: 57
Si   -6.803060   -1.509806   -4.240134
Si   -6.803060   -4.240134   -1.509806
Si   -6.797707   -1.366493    1.366493
Si   -6.797707    1.366493   -1.366493
Si   -6.803060    4.240134    1.509806
Si   -6.803060    1.509806    4.240134
Si   -1.509806   -6.803060   -4.240134
Si   -4.240134   -6.803060   -1.509806
Si   -1.366493   -6.797707    1.366493
Si   -1.509806   -4.240134   -6.803060
Si   -4.240134   -1.509806   -6.803060
Si   -2.739246   -2.739246   -5.484326
Si   -2.739246   -5.484326   -2.739246
Si   -5.484326   -2.739246   -2.739246
Si   -4.063028   -4.063028   -4.063028
Si   -1.370683   -1.370683   -4.114986
Si   -1.370683   -4.114986   -1.370683
Si   -4.114986   -1.370683   -1.370683
Si   -5.454706   -5.454706   -0.036970
Si   -2.736599   -2.736599   -0.007346
Si   -2.709954   -5.440990    2.709954
Si   -5.440990   -2.709954    2.709954
Si   -4.103334   -4.103334    1.355352
Si   -1.367604   -1.367604    1.367604
Si   -1.355352   -4.103334    4.103334
Si   -4.103334   -1.355352    4.103334
Si   -2.709954   -2.709954    5.440990
Si   -1.366493   -1.366493    6.797707
Si   -1.366493    1.366493   -6.797707
Si   -5.454706   -0.036970   -5.454706
Si   -2.709954    2.709954   -5.440990
Si   -2.736599   -0.007346   -2.736599
Si   -5.440990    2.709954   -2.709954
Si   -4.103334    1.355352   -4.103334
Si   -1.355352    4.103334   -4.103334
Si   -1.367604    1.367604   -1.367604
Si   -4.103334    4.103334   -1.355352
Si   -5.470502    0.000000    0.000000
Si   -2.736599    2.736599    0.007346
Si   -2.736599    0.007346    2.736599
Si   -5.484326    2.739246    2.739246
Si   -4.114986    1.370683    1.370683
Si   -1.370683    4.114986    1.370683
Si   -1.370683    1.370683    4.114986
Si   -4.063028    4.063028    4.063028
Si   -5.454706    0.036970    5.454706
Si   -2.739246    2.739246    5.484326
Si   -4.240134    1.509806    6.803060
Si   -1.509806    4.240134    6.803060
Si   -2.709954    5.440990   -2.709954
Si   -1.366493    6.797707   -1.366493
Si   -5.454706    5.454706    0.036970
Si   -2.739246    5.484326    2.739246
Si   -4.240134    6.803060    1.509806
Si   -1.509806    6.803060    4.240134
Si    1.366493   -6.797707   -1.366493
Si    4.240134   -6.803060    1.509806
Si    1.509806   -6.803060    4.240134
Si    1.366493   -1.366493   -6.797707
Si   -0.036970   -5.454706   -5.454706
Si    2.709954   -2.709954   -5.440990
Si    2.709954   -5.440990   -2.709954
Si   -0.007346   -2.736599   -2.736599
Si    1.355352   -4.103334   -4.103334
Si    4.103334   -1.355352   -4.103334
Si    4.103334   -4.103334   -1.355352
Si    1.367604   -1.367604   -1.367604
Si   -0.000000   -5.470502    0.000000
Si    2.736599   -2.736599    0.007346
Si    2.739246   -5.484326    2.739246
Si    0.007346   -2.736599    2.736599
Si    1.370683   -4.114986    1.370683
Si    4.114986   -1.370683    1.370683
Si    4.063028   -4.063028    4.063028
Si    1.370683   -1.370683    4.114986
Si    0.036970   -5.454706    5.454706
Si    2.739246   -2.739246    5.484326
Si    1.509806   -4.240134    6.803060
Si    4.240134   -1.509806    6.803060
Si    4.240134    1.509806   -6.803060
Si    1.509806    4.240134   -6.803060
Si   -0.000000   -0.000000   -5.470502
Si    2.739246    2.739246   -5.484326
Si    2.736599    0.007346   -2.736599
Si    0.007346    2.736599   -2.736599
Si    1.370683    1.370683   -4.114986
Si    4.063028    4.063028   -4.063028
Si    4.114986    1.370683   -1.370683
Si    1.370683    4.114986   -1.370683
Si    0.000000    0.000000    0.000000
Si    2.736599    2.736599   -0.007346
Si    2.736599   -0.007346    2.736599
Si   -0.007346    2.736599    2.736599
Si    1.367604    1.367604    1.367604
Si    4.103334    4.103334    1.355352
Si    4.103334    1.355352    4.103334
Si    1.355352    4.103334    4.103334
Si    0.000000    0.000000    5.470502
Si    2.709954    2.709954    5.440990
Si    1.366493    1.366493    6.797707
Si    0.036970    5.454706   -5.454706
Si    2.739246    5.484326   -2.739246
Si    1.509806    6.803060   -4.240134
Si    4.240134    6.803060   -1.509806
Si    0.000000    5.470502    0.000000
Si    2.709954    5.440990    2.709954
Si    1.366493    6.797707    1.366493
Si   -0.036970    5.454706    5.454706
Si    5.440990   -2.709954   -2.709954
Si    6.797707   -1.366493   -1.366493
Si    5.454706   -5.454706    0.036970
Si    5.484326   -2.739246    2.739246
Si    6.803060   -4.240134    1.509806
Si    6.803060   -1.509806    4.240134
Si    5.454706    0.036970   -5.454706
Si    5.484326    2.739246   -2.739246
Si    6.803060    1.509806   -4.240134
Si    6.803060    4.240134   -1.509806
Si    5.470502    0.000000    0.000000
Si    5.440990    2.709954    2.709954
Si    6.797707    1.366493    1.366493
Si    5.454706   -0.036970    5.454706
Si    5.454706    5.454706   -0.036970
 H   -4.931863   -4.931863   -4.931863
 H   -6.321488   -6.321488    0.833465
 H   -3.577742   -6.310007    3.577742
 H   -6.310007   -3.577742    3.577742
 H   -3.577742   -3.577742    6.310007
 H   -6.321488    0.833465   -6.321488
 H   -3.577742    3.577742   -6.310007
 H   -6.310007    3.577742   -3.577742
 H   -4.931863    4.931863    4.931863
 H   -6.321488   -0.833465    6.321488
 H   -3.577742    6.310007   -3.577742
 H   -6.321488    6.321488   -0.833465
 H    0.833465   -6.321488   -6.321488
 H    3.577742   -3.577742   -6.310007
 H    3.577742   -6.310007   -3.577742
 H    4.931863   -4.931863    4.931863
 H   -0.833465   -6.321488    6.321488
 H    4.931863    4.931863   -4.931863
 H    3.577742    3.577742    6.310007
 H   -0.833465    6.321488   -6.321488
 H    3.577742    6.310007    3.577742
 H    0.833465    6.321488    6.321488
 H    6.310007   -3.577742   -3.577742
 H    6.321488   -6.321488   -0.833465
 H    6.321488   -0.833465   -6.321488
 H    6.310007    3.577742    3.577742
 H    6.321488    0.833465    6.321488
 H    6.321488    6.321488    0.833465
 H   -7.943017   -0.829099   -3.546897
 H   -7.402561   -2.481716   -5.212022
 H   -7.402561   -5.212022   -2.481716
 H   -7.943017   -3.546897   -0.829099
 H   -7.689641   -0.518133    2.218695
 H   -7.689641   -2.218695    0.518133
 H   -7.689641    0.518133   -2.218695
 H   -7.689641    2.218695   -0.518133
 H   -7.402561    5.212022    2.481716
 H   -7.943017    3.546897    0.829099
 H   -7.943017    0.829099    3.546897
 H   -7.402561    2.481716    5.212022
 H   -2.481716   -7.402561   -5.212022
 H   -0.829099   -7.943017   -3.546897
 H   -3.546897   -7.943017   -0.829099
 H   -5.212022   -7.402561   -2.481716
 H   -2.218695   -7.689641    0.518133
 H   -0.518133   -7.689641    2.218695
 H   -0.829099   -3.546897   -7.943017
 H   -2.481716   -5.212022   -7.402561
 H   -5.212022   -2.481716   -7.402561
 H   -3.546897   -0.829099   -7.943017
 H   -0.518133   -2.218695    7.689641
 H   -2.218695   -0.518133    7.689641
 H   -0.518133    2.218695   -7.689641
 H   -2.218695    0.518133   -7.689641
 H   -3.546897    0.829099    7.943017
 H   -5.212022    2.481716    7.402561
 H   -0.829099    3.546897    7.943017
 H   -2.481716    5.212022    7.402561
 H   -2.218695    7.689641   -0.518133
 H   -0.518133    7.689641   -2.218695
 H   -5.212022    7.402561    2.481716
 H   -3.546897    7.943017    0.829099
 H   -2.481716    7.402561    5.212022
 H   -0.829099    7.943017    3.546897
 H    2.218695   -7.689641   -0.518133
 H    0.518133   -7.689641   -2.218695
 H    3.546897   -7.943017    0.829099
 H    5.212022   -7.402561    2.481716
 H    2.481716   -7.402561    5.212022
 H    0.829099   -7.943017    3.546897
 H    0.518133   -2.218695   -7.689641
 H    2.218695   -0.518133   -7.689641
 H    2.481716   -5.212022    7.402561
 H    0.829099   -3.546897    7.943017
 H    5.212022   -2.481716    7.402561
 H    3.546897   -0.829099    7.943017
 H    5.212022    2.481716   -7.402561
 H    3.546897    0.829099   -7.943017
 H    0.829099    3.546897   -7.943017
 H    2.481716    5.212022   -7.402561
 H    2.218695    0.518133    7.689641
 H    0.518133    2.218695    7.689641
 H    0.829099    7.943017   -3.546897
 H    2.481716    7.402561   -5.212022
 H    3.546897    7.943017   -0.829099
 H    5.212022    7.402561   -2.481716
 H    0.518133    7.689641    2.218695
 H    2.218695    7.689641    0.518133
 H    7.689641   -0.518133   -2.218695
 H    7.689641   -2.218695   -0.518133
 H    7.943017   -3.546897    0.829099
 H    7.402561   -5.212022    2.481716
 H    7.943017   -0.829099    3.546897
 H    7.402561   -2.481716    5.212022
 H    7.402561    2.481716   -5.212022
 H    7.943017    0.829099   -3.546897
 H    7.402561    5.212022   -2.481716
 H    7.943017    3.546897   -0.829099
 H    7.689641    2.218695    0.518133
 H    7.689641    0.518133    2.218695
