64

Si   -6.803060   -1.509806   -4.240134
Si   -6.803060   -4.240134   -1.509806
Si   -6.797707   -1.366493    1.366493
Si   -6.797707    1.366493   -1.366493
Si   -6.803060    4.240134    1.509806
Si   -6.803060    1.509806    4.240134
Si   -1.509806   -6.803060   -4.240134
Si   -4.240134   -6.803060   -1.509806
Si   -1.366493   -6.797707    1.366493
Si   -1.509806   -4.240134   -6.803060
Si   -4.240134   -1.509806   -6.803060
Si   -4.063028   -4.063028   -4.063028
Si   -5.454706   -5.454706   -0.036970
Si   -2.709954   -5.440990    2.709954
Si   -5.440990   -2.709954    2.709954
Si   -2.709954   -2.709954    5.440990
Si   -1.366493   -1.366493    6.797707
Si   -1.366493    1.366493   -6.797707
Si   -5.454706   -0.036970   -5.454706
Si   -2.709954    2.709954   -5.440990
Si   -5.440990    2.709954   -2.709954
Si   -4.063028    4.063028    4.063028
Si   -5.454706    0.036970    5.454706
Si   -4.240134    1.509806    6.803060
Si   -1.509806    4.240134    6.803060
Si   -2.709954    5.440990   -2.709954
Si   -1.366493    6.797707   -1.366493
Si   -5.454706    5.454706    0.036970
Si   -4.240134    6.803060    1.509806
Si   -1.509806    6.803060    4.240134
Si    1.366493   -6.797707   -1.366493
Si    4.240134   -6.803060    1.509806
Si    1.509806   -6.803060    4.240134
Si    1.366493   -1.366493   -6.797707
Si   -0.036970   -5.454706   -5.454706
Si    2.709954   -2.709954   -5.440990
Si    2.709954   -5.440990   -2.709954
Si    4.063028   -4.063028    4.063028
Si    0.036970   -5.454706    5.454706
Si    1.509806   -4.240134    6.803060
Si    4.240134   -1.509806    6.803060
Si    4.240134    1.509806   -6.803060
Si    1.509806    4.240134   -6.803060
Si    4.063028    4.063028   -4.063028
Si    2.709954    2.709954    5.440990
Si    1.366493    1.366493    6.797707
Si    0.036970    5.454706   -5.454706
Si    1.509806    6.803060   -4.240134
Si    4.240134    6.803060   -1.509806
Si    2.709954    5.440990    2.709954
Si    1.366493    6.797707    1.366493
Si   -0.036970    5.454706    5.454706
Si    5.440990   -2.709954   -2.709954
Si    6.797707   -1.366493   -1.366493
Si    5.454706   -5.454706    0.036970
Si    6.803060   -4.240134    1.509806
Si    6.803060   -1.509806    4.240134
Si    5.454706    0.036970   -5.454706
Si    6.803060    1.509806   -4.240134
Si    6.803060    4.240134   -1.509806
Si    5.440990    2.709954    2.709954
Si    6.797707    1.366493    1.366493
Si    5.454706   -0.036970    5.454706
Si    5.454706    5.454706   -0.036970
