268

Si  -12.255672   -1.366463    1.366463
Si  -12.255672    1.366463   -1.366463
Si   -6.805641   -6.805641    1.382355
Si   -6.805363   -1.346413   -4.074601
Si   -6.805363   -4.074601   -1.346413
Si   -9.540117   -1.344659   -1.344659
Si   -8.170284   -5.441558    2.711026
Si  -10.902246   -2.711283    2.711283
Si   -9.537541   -4.077212    1.383933
Si   -9.537541   -1.383933    4.077212
Si   -8.170284   -2.711026    5.441558
Si   -6.805641   -1.382355    6.805641
Si   -6.805641    1.382355   -6.805641
Si   -8.170284    2.711026   -5.441558
Si  -10.902246    2.711283   -2.711283
Si   -9.537541    1.383933   -4.077212
Si   -9.537541    4.077212   -1.383933
Si   -9.540117    1.344659    1.344659
Si   -6.805363    4.074601    1.346413
Si   -6.805363    1.346413    4.074601
Si   -8.170284    5.441558   -2.711026
Si   -6.805641    6.805641   -1.382355
Si   -1.366463  -12.255672    1.366463
Si   -1.346413   -6.805363   -4.074601
Si   -1.344659   -9.540117   -1.344659
Si   -4.074601   -6.805363   -1.346413
Si   -2.711283  -10.902246    2.711283
Si   -5.441558   -8.170284    2.711026
Si   -4.077212   -9.537541    1.383933
Si   -1.383933   -9.537541    4.077212
Si   -2.711026   -8.170284    5.441558
Si   -1.382355   -6.805641    6.805641
Si   -1.344659   -1.344659   -9.540117
Si   -1.346413   -4.074601   -6.805363
Si   -4.074601   -1.346413   -6.805363
Si   -4.074432   -4.074432   -4.074432
Si   -5.442454   -5.442454    5.442454
Si   -2.711026   -5.441558    8.170284
Si   -5.441558   -2.711026    8.170284
Si   -1.383933   -4.077212    9.537541
Si   -4.077212   -1.383933    9.537541
Si   -2.711283   -2.711283   10.902246
Si   -1.366463   -1.366463   12.255672
Si   -1.366463    1.366463  -12.255672
Si   -2.711283    2.711283  -10.902246
Si   -5.441558    2.711026   -8.170284
Si   -4.077212    1.383933   -9.537541
Si   -1.383933    4.077212   -9.537541
Si   -4.074432    4.074432    4.074432
Si   -4.074601    1.346413    6.805363
Si   -1.346413    4.074601    6.805363
Si   -1.344659    1.344659    9.540117
Si   -2.711026    5.441558   -8.170284
Si   -1.382355    6.805641   -6.805641
Si   -5.442454    5.442454   -5.442454
Si   -2.711026    8.170284   -5.441558
Si   -5.441558    8.170284   -2.711026
Si   -1.383933    9.537541   -4.077212
Si   -4.077212    9.537541   -1.383933
Si   -4.074601    6.805363    1.346413
Si   -1.344659    9.540117    1.344659
Si   -1.346413    6.805363    4.074601
Si   -2.711283   10.902246   -2.711283
Si   -1.366463   12.255672   -1.366463
Si    1.366463  -12.255672   -1.366463
Si    1.382355   -6.805641   -6.805641
Si    2.711026   -8.170284   -5.441558
Si    2.711283  -10.902246   -2.711283
Si    1.383933   -9.537541   -4.077212
Si    4.077212   -9.537541   -1.383933
Si    1.344659   -9.540117    1.344659
Si    4.074601   -6.805363    1.346413
Si    1.346413   -6.805363    4.074601
Si    1.366463   -1.366463  -12.255672
Si    2.711283   -2.711283  -10.902246
Si    2.711026   -5.441558   -8.170284
Si    1.383933   -4.077212   -9.537541
Si    4.077212   -1.383933   -9.537541
Si    4.074432   -4.074432    4.074432
Si    1.346413   -4.074601    6.805363
Si    4.074601   -1.346413    6.805363
Si    1.344659   -1.344659    9.540117
Si    1.344659    1.344659   -9.540117
Si    4.074601    1.346413   -6.805363
Si    1.346413    4.074601   -6.805363
Si    4.074432    4.074432   -4.074432
Si    4.077212    1.383933    9.537541
Si    1.383933    4.077212    9.537541
Si    2.711283    2.711283   10.902246
Si    1.366463    1.366463   12.255672
Si    1.346413    6.805363   -4.074601
Si    4.074601    6.805363   -1.346413
Si    1.344659    9.540117   -1.344659
Si    4.077212    9.537541    1.383933
Si    1.383933    9.537541    4.077212
Si    2.711026    8.170284    5.441558
Si    2.711026    5.441558    8.170284
Si    1.382355    6.805641    6.805641
Si    2.711283   10.902246    2.711283
Si    1.366463   12.255672    1.366463
Si    5.441558   -8.170284   -2.711026
Si    6.805641   -6.805641   -1.382355
Si    5.441558   -2.711026   -8.170284
Si    6.805641   -1.382355   -6.805641
Si    5.442454   -5.442454   -5.442454
Si    8.170284   -2.711026   -5.441558
Si    8.170284   -5.441558   -2.711026
Si    9.537541   -1.383933   -4.077212
Si    9.537541   -4.077212   -1.383933
Si    6.805363   -4.074601    1.346413
Si    9.540117   -1.344659    1.344659
Si    6.805363   -1.346413    4.074601
Si    6.805363    1.346413   -4.074601
Si    9.540117    1.344659   -1.344659
Si    6.805363    4.074601   -1.346413
Si    9.537541    4.077212    1.383933
Si    9.537541    1.383933    4.077212
Si    8.170284    2.711026    5.441558
Si    5.441558    2.711026    8.170284
Si    6.805641    1.382355    6.805641
Si    8.170284    5.441558    2.711026
Si    5.441558    8.170284    2.711026
Si    6.805641    6.805641    1.382355
Si    5.442454    5.442454    5.442454
Si   10.902246   -2.711283   -2.711283
Si   12.255672   -1.366463   -1.366463
Si   10.902246    2.711283    2.711283
Si   12.255672    1.366463    1.366463
 H   -7.672952   -7.672952    0.513072
 H   -7.673672   -2.214537   -4.942485
 H   -7.673672   -4.942485   -2.214537
 H  -10.403438   -2.215687   -2.215687
 H   -9.037913   -6.308649    3.580288
 H  -11.765720   -3.581582    3.581582
 H  -10.400260   -4.946656    0.511622
 H  -10.400260   -0.511622    4.946656
 H   -9.037913   -3.580288    6.308649
 H   -7.672952   -0.513072    7.672952
 H   -7.672952    0.513072   -7.672952
 H   -9.037913    3.580288   -6.308649
 H  -11.765720    3.581582   -3.581582
 H  -10.400260    0.511622   -4.946656
 H  -10.400260    4.946656   -0.511622
 H  -10.403438    2.215687    2.215687
 H   -7.673672    4.942485    2.214537
 H   -7.673672    2.214537    4.942485
 H   -9.037913    6.308649   -3.580288
 H   -7.672952    7.672952   -0.513072
 H   -2.214537   -7.673672   -4.942485
 H   -2.215687  -10.403438   -2.215687
 H   -4.942485   -7.673672   -2.214537
 H   -3.581582  -11.765720    3.581582
 H   -6.308649   -9.037913    3.580288
 H   -4.946656  -10.400260    0.511622
 H   -0.511622  -10.400260    4.946656
 H   -3.580288   -9.037913    6.308649
 H   -0.513072   -7.672952    7.672952
 H   -2.215687   -2.215687  -10.403438
 H   -2.214537   -4.942485   -7.673672
 H   -4.942485   -2.214537   -7.673672
 H   -4.942512   -4.942512   -4.942512
 H   -6.310658   -6.310658    6.310658
 H   -3.580288   -6.308649    9.037913
 H   -6.308649   -3.580288    9.037913
 H   -0.511622   -4.946656   10.400260
 H   -4.946656   -0.511622   10.400260
 H   -3.581582   -3.581582   11.765720
 H   -3.581582    3.581582  -11.765720
 H   -6.308649    3.580288   -9.037913
 H   -4.946656    0.511622  -10.400260
 H   -0.511622    4.946656  -10.400260
 H   -4.942512    4.942512    4.942512
 H   -4.942485    2.214537    7.673672
 H   -2.214537    4.942485    7.673672
 H   -2.215687    2.215687   10.403438
 H   -3.580288    6.308649   -9.037913
 H   -0.513072    7.672952   -7.672952
 H   -6.310658    6.310658   -6.310658
 H   -3.580288    9.037913   -6.308649
 H   -6.308649    9.037913   -3.580288
 H   -0.511622   10.400260   -4.946656
 H   -4.946656   10.400260   -0.511622
 H   -4.942485    7.673672    2.214537
 H   -2.215687   10.403438    2.215687
 H   -2.214537    7.673672    4.942485
 H   -3.581582   11.765720   -3.581582
 H    0.513072   -7.672952   -7.672952
 H    3.580288   -9.037913   -6.308649
 H    3.581582  -11.765720   -3.581582
 H    0.511622  -10.400260   -4.946656
 H    4.946656  -10.400260   -0.511622
 H    2.215687  -10.403438    2.215687
 H    4.942485   -7.673672    2.214537
 H    2.214537   -7.673672    4.942485
 H    3.581582   -3.581582  -11.765720
 H    3.580288   -6.308649   -9.037913
 H    0.511622   -4.946656  -10.400260
 H    4.946656   -0.511622  -10.400260
 H    4.942512   -4.942512    4.942512
 H    2.214537   -4.942485    7.673672
 H    4.942485   -2.214537    7.673672
 H    2.215687   -2.215687   10.403438
 H    2.215687    2.215687  -10.403438
 H    4.942485    2.214537   -7.673672
 H    2.214537    4.942485   -7.673672
 H    4.942512    4.942512   -4.942512
 H    4.946656    0.511622   10.400260
 H    0.511622    4.946656   10.400260
 H    3.581582    3.581582   11.765720
 H    2.214537    7.673672   -4.942485
 H    4.942485    7.673672   -2.214537
 H    2.215687   10.403438   -2.215687
 H    4.946656   10.400260    0.511622
 H    0.511622   10.400260    4.946656
 H    3.580288    9.037913    6.308649
 H    3.580288    6.308649    9.037913
 H    0.513072    7.672952    7.672952
 H    3.581582   11.765720    3.581582
 H    6.308649   -9.037913   -3.580288
 H    7.672952   -7.672952   -0.513072
 H    6.308649   -3.580288   -9.037913
 H    7.672952   -0.513072   -7.672952
 H    6.310658   -6.310658   -6.310658
 H    9.037913   -3.580288   -6.308649
 H    9.037913   -6.308649   -3.580288
 H   10.400260   -0.511622   -4.946656
 H   10.400260   -4.946656   -0.511622
 H    7.673672   -4.942485    2.214537
 H   10.403438   -2.215687    2.215687
 H    7.673672   -2.214537    4.942485
 H    7.673672    2.214537   -4.942485
 H   10.403438    2.215687   -2.215687
 H    7.673672    4.942485   -2.214537
 H   10.400260    4.946656    0.511622
 H   10.400260    0.511622    4.946656
 H    9.037913    3.580288    6.308649
 H    6.308649    3.580288    9.037913
 H    7.672952    0.513072    7.672952
 H    9.037913    6.308649    3.580288
 H    6.308649    9.037913    3.580288
 H    7.672952    7.672952    0.513072
 H    6.310658    6.310658    6.310658
 H   11.765720   -3.581582   -3.581582
 H   11.765720    3.581582    3.581582
 H  -13.141157   -0.512580    2.221812
 H  -13.141157   -2.221812    0.512580
 H  -13.141157    0.512580   -2.221812
 H  -13.141157    2.221812   -0.512580
 H   -2.221812  -13.141157    0.512580
 H   -0.512580  -13.141157    2.221812
 H   -0.512580   -2.221812   13.141157
 H   -2.221812   -0.512580   13.141157
 H   -0.512580    2.221812  -13.141157
 H   -2.221812    0.512580  -13.141157
 H   -2.221812   13.141157   -0.512580
 H   -0.512580   13.141157   -2.221812
 H    2.221812  -13.141157   -0.512580
 H    0.512580  -13.141157   -2.221812
 H    0.512580   -2.221812  -13.141157
 H    2.221812   -0.512580  -13.141157
 H    2.221812    0.512580   13.141157
 H    0.512580    2.221812   13.141157
 H    0.512580   13.141157    2.221812
 H    2.221812   13.141157    0.512580
 H   13.141157   -0.512580   -2.221812
 H   13.141157   -2.221812   -0.512580
 H   13.141157    2.221812    0.512580
 H   13.141157    0.512580    2.221812
