137
Geometry Step: 30
Si   -8.191671   -2.730358   -0.000104
Si   -6.827598   -1.364972    1.364972
Si   -6.826319   -4.096332    4.096332
Si   -8.191671   -0.000104   -2.730358
Si   -6.826319    4.096332   -4.096332
Si   -6.827598    1.364972   -1.364972
Si  -10.928308    0.000000    0.000000
Si   -8.191671    2.730358    0.000104
Si   -8.191671    0.000104    2.730358
Si   -2.730358   -8.191671   -0.000104
Si   -1.364972   -6.827598    1.364972
Si   -4.096332   -6.826319    4.096332
Si   -2.728199   -2.728199   -5.458376
Si   -2.728199   -5.458376   -2.728199
Si   -5.458376   -2.728199   -2.728199
Si   -1.365253   -1.365253   -4.094999
Si   -1.365253   -4.094999   -1.365253
Si   -4.094999   -1.365253   -1.365253
Si   -5.459602   -5.459602    0.000031
Si   -2.729313   -2.729313    0.000931
Si   -2.731467   -5.460723    2.731467
Si   -5.460723   -2.731467    2.731467
Si   -4.095421   -4.095421    1.364077
Si   -1.365222   -1.365222    1.365222
Si   -1.364077   -4.095421    4.095421
Si   -4.095421   -1.364077    4.095421
Si   -2.731467   -2.731467    5.460723
Si   -4.096332   -4.096332    6.826319
Si   -1.364972   -1.364972    6.827598
Si   -2.730358   -0.000104   -8.191671
Si   -1.364972    1.364972   -6.827598
Si   -4.096332    4.096332   -6.826319
Si   -5.459602    0.000031   -5.459602
Si   -2.731467    2.731467   -5.460723
Si   -2.729313    0.000931   -2.729313
Si   -5.460723    2.731467   -2.731467
Si   -4.095421    1.364077   -4.095421
Si   -1.364077    4.095421   -4.095421
Si   -1.365222    1.365222   -1.365222
Si   -4.095421    4.095421   -1.364077
Si   -5.459299    0.000000    0.000000
Si   -2.729313    2.729313   -0.000931
Si   -2.729313   -0.000931    2.729313
Si   -5.458376    2.728199    2.728199
Si   -4.094999    1.365253    1.365253
Si   -1.365253    4.094999    1.365253
Si   -1.365253    1.365253    4.094999
Si   -5.459602   -0.000031    5.459602
Si   -2.728199    2.728199    5.458376
Si   -2.730358    0.000104    8.191671
Si   -2.731467    5.460723   -2.731467
Si   -4.096332    6.826319   -4.096332
Si   -1.364972    6.827598   -1.364972
Si   -5.459602    5.459602   -0.000031
Si   -2.730358    8.191671    0.000104
Si   -2.728199    5.458376    2.728199
Si   -0.000104   -8.191671   -2.730358
Si    4.096332   -6.826319   -4.096332
Si    1.364972   -6.827598   -1.364972
Si   -0.000000  -10.928308    0.000000
Si    2.730358   -8.191671    0.000104
Si    0.000104   -8.191671    2.730358
Si   -0.000104   -2.730358   -8.191671
Si    4.096332   -4.096332   -6.826319
Si    1.364972   -1.364972   -6.827598
Si    0.000031   -5.459602   -5.459602
Si    2.731467   -2.731467   -5.460723
Si    2.731467   -5.460723   -2.731467
Si    0.000931   -2.729313   -2.729313
Si    1.364077   -4.095421   -4.095421
Si    4.095421   -1.364077   -4.095421
Si    4.095421   -4.095421   -1.364077
Si    1.365222   -1.365222   -1.365222
Si   -0.000000   -5.459299    0.000000
Si    2.729313   -2.729313   -0.000931
Si    2.728199   -5.458376    2.728199
Si   -0.000931   -2.729313    2.729313
Si    1.365253   -4.094999    1.365253
Si    4.094999   -1.365253    1.365253
Si    1.365253   -1.365253    4.094999
Si   -0.000031   -5.459602    5.459602
Si    2.728199   -2.728199    5.458376
Si    0.000104   -2.730358    8.191671
Si   -0.000000   -0.000000  -10.928308
Si    2.730358    0.000104   -8.191671
Si    0.000104    2.730358   -8.191671
Si   -0.000000   -0.000000   -5.459299
Si    2.728199    2.728199   -5.458376
Si    2.729313   -0.000931   -2.729313
Si   -0.000931    2.729313   -2.729313
Si    1.365253    1.365253   -4.094999
Si    4.094999    1.365253   -1.365253
Si    1.365253    4.094999   -1.365253
Si    0.000000    0.000000    0.000000
Si    2.729313    2.729313    0.000931
Si    2.729313    0.000931    2.729313
Si    0.000931    2.729313    2.729313
Si    1.365222    1.365222    1.365222
Si    4.095421    4.095421    1.364077
Si    4.095421    1.364077    4.095421
Si    1.364077    4.095421    4.095421
Si    0.000000    0.000000    5.459299
Si    2.731467    2.731467    5.460723
Si    2.730358   -0.000104    8.191671
Si   -0.000104    2.730358    8.191671
Si    1.364972    1.364972    6.827598
Si    4.096332    4.096332    6.826319
Si    0.000000    0.000000   10.928308
Si   -0.000031    5.459602   -5.459602
Si    2.728199    5.458376   -2.728199
Si    0.000104    8.191671   -2.730358
Si    0.000000    5.459299    0.000000
Si    2.730358    8.191671   -0.000104
Si    2.731467    5.460723    2.731467
Si   -0.000104    8.191671    2.730358
Si    1.364972    6.827598    1.364972
Si    4.096332    6.826319    4.096332
Si    0.000031    5.459602    5.459602
Si    0.000000   10.928308    0.000000
Si    5.460723   -2.731467   -2.731467
Si    6.826319   -4.096332   -4.096332
Si    6.827598   -1.364972   -1.364972
Si    5.459602   -5.459602   -0.000031
Si    8.191671   -2.730358    0.000104
Si    5.458376   -2.728199    2.728199
Si    5.459602   -0.000031   -5.459602
Si    8.191671    0.000104   -2.730358
Si    5.458376    2.728199   -2.728199
Si    5.459299    0.000000    0.000000
Si    8.191671    2.730358   -0.000104
Si    8.191671   -0.000104    2.730358
Si    5.460723    2.731467    2.731467
Si    6.827598    1.364972    1.364972
Si    6.826319    4.096332    4.096332
Si    5.459602    0.000031    5.459602
Si    5.459602    5.459602    0.000031
Si   10.928308    0.000000    0.000000
