165
Geometry Step: 33
Si   -6.826248   -1.365483   -4.094307
Si   -6.826248   -4.094307   -1.365483
Si   -9.561145   -1.361914   -1.361914
Si   -8.191277   -2.726506    0.000093
Si   -6.822758   -1.362180    1.362180
Si   -8.191277    0.000093   -2.726506
Si   -6.822758    1.362180   -1.362180
Si  -10.934279    0.000000    0.000000
Si   -8.191277    2.726506   -0.000093
Si   -8.191277   -0.000093    2.726506
Si   -9.561145    1.361914    1.361914
Si   -6.826248    4.094307    1.365483
Si   -6.826248    1.365483    4.094307
Si   -1.365483   -6.826248   -4.094307
Si   -1.361914   -9.561145   -1.361914
Si   -4.094307   -6.826248   -1.365483
Si   -2.726506   -8.191277    0.000093
Si   -1.362180   -6.822758    1.362180
Si   -1.361914   -1.361914   -9.561145
Si   -1.365483   -4.094307   -6.826248
Si   -4.094307   -1.365483   -6.826248
Si   -2.727631   -2.727631   -5.459357
Si   -2.727631   -5.459357   -2.727631
Si   -5.459357   -2.727631   -2.727631
Si   -4.095959   -4.095959   -4.095959
Si   -1.364476   -1.364476   -4.093239
Si   -1.364476   -4.093239   -1.364476
Si   -4.093239   -1.364476   -1.364476
Si   -5.459765   -5.459765   -0.000806
Si   -2.729134   -2.729134   -0.000459
Si   -2.730040   -5.460347    2.730040
Si   -5.460347   -2.730040    2.730040
Si   -4.094090   -4.094090    1.362308
Si   -1.365054   -1.365054    1.365054
Si   -1.362308   -4.094090    4.094090
Si   -4.094090   -1.362308    4.094090
Si   -2.730040   -2.730040    5.460347
Si   -1.362180   -1.362180    6.822758
Si   -2.726506    0.000093   -8.191277
Si   -1.362180    1.362180   -6.822758
Si   -5.459765   -0.000806   -5.459765
Si   -2.730040    2.730040   -5.460347
Si   -2.729134   -0.000459   -2.729134
Si   -5.460347    2.730040   -2.730040
Si   -4.094090    1.362308   -4.094090
Si   -1.362308    4.094090   -4.094090
Si   -1.365054    1.365054   -1.365054
Si   -4.094090    4.094090   -1.362308
Si   -5.456159    0.000000    0.000000
Si   -2.729134    2.729134    0.000459
Si   -2.729134    0.000459    2.729134
Si   -5.459357    2.727631    2.727631
Si   -4.093239    1.364476    1.364476
Si   -1.364476    4.093239    1.364476
Si   -1.364476    1.364476    4.093239
Si   -4.095959    4.095959    4.095959
Si   -5.459765    0.000806    5.459765
Si   -2.727631    2.727631    5.459357
Si   -2.726506   -0.000093    8.191277
Si   -4.094307    1.365483    6.826248
Si   -1.365483    4.094307    6.826248
Si   -1.361914    1.361914    9.561145
Si   -2.730040    5.460347   -2.730040
Si   -1.362180    6.822758   -1.362180
Si   -5.459765    5.459765    0.000806
Si   -2.726506    8.191277   -0.000093
Si   -2.727631    5.459357    2.727631
Si   -4.094307    6.826248    1.365483
Si   -1.361914    9.561145    1.361914
Si   -1.365483    6.826248    4.094307
Si    0.000093   -8.191277   -2.726506
Si    1.362180   -6.822758   -1.362180
Si   -0.000000  -10.934279    0.000000
Si    2.726506   -8.191277   -0.000093
Si   -0.000093   -8.191277    2.726506
Si    1.361914   -9.561145    1.361914
Si    4.094307   -6.826248    1.365483
Si    1.365483   -6.826248    4.094307
Si    0.000093   -2.726506   -8.191277
Si    1.362180   -1.362180   -6.822758
Si   -0.000806   -5.459765   -5.459765
Si    2.730040   -2.730040   -5.460347
Si    2.730040   -5.460347   -2.730040
Si   -0.000459   -2.729134   -2.729134
Si    1.362308   -4.094090   -4.094090
Si    4.094090   -1.362308   -4.094090
Si    4.094090   -4.094090   -1.362308
Si    1.365054   -1.365054   -1.365054
Si   -0.000000   -5.456159    0.000000
Si    2.729134   -2.729134    0.000459
Si    2.727631   -5.459357    2.727631
Si    0.000459   -2.729134    2.729134
Si    1.364476   -4.093239    1.364476
Si    4.093239   -1.364476    1.364476
Si    4.095959   -4.095959    4.095959
Si    1.364476   -1.364476    4.093239
Si    0.000806   -5.459765    5.459765
Si    2.727631   -2.727631    5.459357
Si   -0.000093   -2.726506    8.191277
Si    1.365483   -4.094307    6.826248
Si    4.094307   -1.365483    6.826248
Si    1.361914   -1.361914    9.561145
Si   -0.000000   -0.000000  -10.934279
Si    2.726506   -0.000093   -8.191277
Si   -0.000093    2.726506   -8.191277
Si    1.361914    1.361914   -9.561145
Si    4.094307    1.365483   -6.826248
Si    1.365483    4.094307   -6.826248
Si   -0.000000   -0.000000   -5.456159
Si    2.727631    2.727631   -5.459357
Si    2.729134    0.000459   -2.729134
Si    0.000459    2.729134   -2.729134
Si    1.364476    1.364476   -4.093239
Si    4.095959    4.095959   -4.095959
Si    4.093239    1.364476   -1.364476
Si    1.364476    4.093239   -1.364476
Si    0.000000    0.000000    0.000000
Si    2.729134    2.729134   -0.000459
Si    2.729134   -0.000459    2.729134
Si   -0.000459    2.729134    2.729134
Si    1.365054    1.365054    1.365054
Si    4.094090    4.094090    1.362308
Si    4.094090    1.362308    4.094090
Si    1.362308    4.094090    4.094090
Si    0.000000    0.000000    5.456159
Si    2.730040    2.730040    5.460347
Si    2.726506    0.000093    8.191277
Si    0.000093    2.726506    8.191277
Si    1.362180    1.362180    6.822758
Si    0.000000    0.000000   10.934279
Si    0.000806    5.459765   -5.459765
Si    2.727631    5.459357   -2.727631
Si   -0.000093    8.191277   -2.726506
Si    1.365483    6.826248   -4.094307
Si    4.094307    6.826248   -1.365483
Si    1.361914    9.561145   -1.361914
Si    0.000000    5.456159    0.000000
Si    2.726506    8.191277    0.000093
Si    2.730040    5.460347    2.730040
Si    0.000093    8.191277    2.726506
Si    1.362180    6.822758    1.362180
Si   -0.000806    5.459765    5.459765
Si    0.000000   10.934279    0.000000
Si    5.460347   -2.730040   -2.730040
Si    6.822758   -1.362180   -1.362180
Si    5.459765   -5.459765    0.000806
Si    8.191277   -2.726506   -0.000093
Si    5.459357   -2.727631    2.727631
Si    6.826248   -4.094307    1.365483
Si    9.561145   -1.361914    1.361914
Si    6.826248   -1.365483    4.094307
Si    5.459765    0.000806   -5.459765
Si    8.191277   -0.000093   -2.726506
Si    5.459357    2.727631   -2.727631
Si    6.826248    1.365483   -4.094307
Si    9.561145    1.361914   -1.361914
Si    6.826248    4.094307   -1.365483
Si    5.456159    0.000000    0.000000
Si    8.191277    2.726506    0.000093
Si    8.191277    0.000093    2.726506
Si    5.460347    2.730040    2.730040
Si    6.822758    1.362180    1.362180
Si    5.459765   -0.000806    5.459765
Si    5.459765    5.459765   -0.000806
Si   10.934279    0.000000    0.000000
