309
Geometry Step: 49
Si  -12.304408   -1.378025    1.378025
Si  -12.304408    1.378025   -1.378025
Si   -6.824229   -6.824229    1.364861
Si   -6.826902   -6.826902    6.826902
Si   -8.191378   -2.732011   -5.457575
Si   -8.191378   -5.457575   -2.732011
Si  -10.942012   -2.723910   -2.723910
Si   -6.827939   -1.365431   -4.093653
Si   -6.827939   -4.093653   -1.365431
Si   -9.571968   -1.361328   -1.361328
Si   -8.193774   -2.725036    0.000014
Si   -8.188789   -5.459692    2.731235
Si  -10.915552   -2.730421    2.730421
Si   -9.552628   -4.094706    1.363939
Si   -6.825601   -1.363104    1.363104
Si   -6.822368   -4.091915    4.091915
Si   -9.552628   -1.363939    4.094706
Si   -8.188789   -2.731235    5.459692
Si   -6.824229   -1.364861    6.824229
Si   -6.824229    1.364861   -6.824229
Si   -8.188789    2.731235   -5.459692
Si   -8.193774    0.000014   -2.725036
Si  -10.915552    2.730421   -2.730421
Si   -9.552628    1.363939   -4.094706
Si   -6.822368    4.091915   -4.091915
Si   -6.825601    1.363104   -1.363104
Si   -9.552628    4.094706   -1.363939
Si  -10.953993    0.000000    0.000000
Si   -8.193774    2.725036   -0.000014
Si   -8.193774   -0.000014    2.725036
Si  -10.942012    2.723910    2.723910
Si   -9.571968    1.361328    1.361328
Si   -6.827939    4.093653    1.365431
Si   -6.827939    1.365431    4.093653
Si   -8.191378    2.732011    5.457575
Si   -6.826902    6.826902   -6.826902
Si   -8.188789    5.459692   -2.731235
Si   -6.824229    6.824229   -1.364861
Si   -8.191378    5.457575    2.732011
Si   -1.378025  -12.304408    1.378025
Si   -2.732011   -8.191378   -5.457575
Si   -2.723910  -10.942012   -2.723910
Si   -5.457575   -8.191378   -2.732011
Si   -1.365431   -6.827939   -4.093653
Si   -1.361328   -9.571968   -1.361328
Si   -4.093653   -6.827939   -1.365431
Si   -2.725036   -8.193774    0.000014
Si   -2.730421  -10.915552    2.730421
Si   -5.459692   -8.188789    2.731235
Si   -4.094706   -9.552628    1.363939
Si   -1.363104   -6.825601    1.363104
Si   -1.363939   -9.552628    4.094706
Si   -4.091915   -6.822368    4.091915
Si   -2.731235   -8.188789    5.459692
Si   -1.364861   -6.824229    6.824229
Si   -2.723910   -2.723910  -10.942012
Si   -2.732011   -5.457575   -8.191378
Si   -5.457575   -2.732011   -8.191378
Si   -1.361328   -1.361328   -9.571968
Si   -1.365431   -4.093653   -6.827939
Si   -4.093653   -1.365431   -6.827939
Si   -5.457284   -5.457284   -5.457284
Si   -2.728721   -2.728721   -5.459785
Si   -2.728721   -5.459785   -2.728721
Si   -5.459785   -2.728721   -2.728721
Si   -4.094152   -4.094152   -4.094152
Si   -1.364569   -1.364569   -4.094671
Si   -1.364569   -4.094671   -1.364569
Si   -4.094671   -1.364569   -1.364569
Si   -5.458986   -5.458986    0.000829
Si   -2.729828   -2.729828   -0.000584
Si   -2.727635   -5.458875    2.727635
Si   -5.458875   -2.727635    2.727635
Si   -4.094031   -4.094031    1.364180
Si   -1.365086   -1.365086    1.365086
Si   -1.364180   -4.094031    4.094031
Si   -4.094031   -1.364180    4.094031
Si   -5.460500   -5.460500    5.460500
Si   -2.727635   -2.727635    5.458875
Si   -2.731235   -5.459692    8.188789
Si   -5.459692   -2.731235    8.188789
Si   -4.091915   -4.091915    6.822368
Si   -1.363104   -1.363104    6.825601
Si   -1.363939   -4.094706    9.552628
Si   -4.094706   -1.363939    9.552628
Si   -2.730421   -2.730421   10.915552
Si   -1.378025   -1.378025   12.304408
Si   -1.378025    1.378025  -12.304408
Si   -2.730421    2.730421  -10.915552
Si   -2.725036    0.000014   -8.193774
Si   -5.459692    2.731235   -8.188789
Si   -4.094706    1.363939   -9.552628
Si   -1.363939    4.094706   -9.552628
Si   -1.363104    1.363104   -6.825601
Si   -4.091915    4.091915   -6.822368
Si   -5.458986    0.000829   -5.458986
Si   -2.727635    2.727635   -5.458875
Si   -2.729828   -0.000584   -2.729828
Si   -5.458875    2.727635   -2.727635
Si   -4.094031    1.364180   -4.094031
Si   -1.364180    4.094031   -4.094031
Si   -1.365086    1.365086   -1.365086
Si   -4.094031    4.094031   -1.364180
Si   -5.459452    0.000000    0.000000
Si   -2.729828    2.729828    0.000584
Si   -2.729828    0.000584    2.729828
Si   -5.459785    2.728721    2.728721
Si   -4.094671    1.364569    1.364569
Si   -1.364569    4.094671    1.364569
Si   -1.364569    1.364569    4.094671
Si   -4.094152    4.094152    4.094152
Si   -5.458986   -0.000829    5.458986
Si   -2.728721    2.728721    5.459785
Si   -2.725036   -0.000014    8.193774
Si   -5.457575    2.732011    8.191378
Si   -4.093653    1.365431    6.827939
Si   -1.365431    4.093653    6.827939
Si   -1.361328    1.361328    9.571968
Si   -2.723910    2.723910   10.942012
Si   -2.731235    5.459692   -8.188789
Si   -1.364861    6.824229   -6.824229
Si   -5.460500    5.460500   -5.460500
Si   -2.731235    8.188789   -5.459692
Si   -2.727635    5.458875   -2.727635
Si   -5.459692    8.188789   -2.731235
Si   -4.091915    6.822368   -4.091915
Si   -1.363939    9.552628   -4.094706
Si   -1.363104    6.825601   -1.363104
Si   -4.094706    9.552628   -1.363939
Si   -5.458986    5.458986   -0.000829
Si   -2.725036    8.193774   -0.000014
Si   -2.728721    5.459785    2.728721
Si   -5.457575    8.191378    2.732011
Si   -4.093653    6.827939    1.365431
Si   -1.361328    9.571968    1.361328
Si   -1.365431    6.827939    4.093653
Si   -5.457284    5.457284    5.457284
Si   -2.732011    8.191378    5.457575
Si   -2.732011    5.457575    8.191378
Si   -2.730421   10.915552   -2.730421
Si   -1.378025   12.304408   -1.378025
Si   -2.723910   10.942012    2.723910
Si    1.378025  -12.304408   -1.378025
Si    1.364861   -6.824229   -6.824229
Si    2.731235   -8.188789   -5.459692
Si    2.730421  -10.915552   -2.730421
Si    0.000014   -8.193774   -2.725036
Si    1.363939   -9.552628   -4.094706
Si    4.091915   -6.822368   -4.091915
Si    4.094706   -9.552628   -1.363939
Si    1.363104   -6.825601   -1.363104
Si   -0.000000  -10.953993    0.000000
Si    2.725036   -8.193774   -0.000014
Si    2.723910  -10.942012    2.723910
Si   -0.000014   -8.193774    2.725036
Si    1.361328   -9.571968    1.361328
Si    4.093653   -6.827939    1.365431
Si    1.365431   -6.827939    4.093653
Si    2.732011   -8.191378    5.457575
Si    1.378025   -1.378025  -12.304408
Si    2.730421   -2.730421  -10.915552
Si    2.731235   -5.459692   -8.188789
Si    0.000014   -2.725036   -8.193774
Si    1.363939   -4.094706   -9.552628
Si    4.094706   -1.363939   -9.552628
Si    4.091915   -4.091915   -6.822368
Si    1.363104   -1.363104   -6.825601
Si    0.000829   -5.458986   -5.458986
Si    2.727635   -2.727635   -5.458875
Si    2.727635   -5.458875   -2.727635
Si   -0.000584   -2.729828   -2.729828
Si    1.364180   -4.094031   -4.094031
Si    4.094031   -1.364180   -4.094031
Si    4.094031   -4.094031   -1.364180
Si    1.365086   -1.365086   -1.365086
Si   -0.000000   -5.459452    0.000000
Si    2.729828   -2.729828    0.000584
Si    2.728721   -5.459785    2.728721
Si    0.000584   -2.729828    2.729828
Si    1.364569   -4.094671    1.364569
Si    4.094671   -1.364569    1.364569
Si    4.094152   -4.094152    4.094152
Si    1.364569   -1.364569    4.094671
Si   -0.000829   -5.458986    5.458986
Si    2.728721   -2.728721    5.459785
Si    2.732011   -5.457575    8.191378
Si   -0.000014   -2.725036    8.193774
Si    1.365431   -4.093653    6.827939
Si    4.093653   -1.365431    6.827939
Si    1.361328   -1.361328    9.571968
Si    2.723910   -2.723910   10.942012
Si   -0.000000   -0.000000  -10.953993
Si    2.723910    2.723910  -10.942012
Si    2.725036   -0.000014   -8.193774
Si   -0.000014    2.725036   -8.193774
Si    1.361328    1.361328   -9.571968
Si    4.093653    1.365431   -6.827939
Si    1.365431    4.093653   -6.827939
Si   -0.000000   -0.000000   -5.459452
Si    2.728721    2.728721   -5.459785
Si    2.729828    0.000584   -2.729828
Si    0.000584    2.729828   -2.729828
Si    1.364569    1.364569   -4.094671
Si    4.094152    4.094152   -4.094152
Si    4.094671    1.364569   -1.364569
Si    1.364569    4.094671   -1.364569
Si    0.000000    0.000000    0.000000
Si    2.729828    2.729828   -0.000584
Si    2.729828   -0.000584    2.729828
Si   -0.000584    2.729828    2.729828
Si    1.365086    1.365086    1.365086
Si    4.094031    4.094031    1.364180
Si    4.094031    1.364180    4.094031
Si    1.364180    4.094031    4.094031
Si    0.000000    0.000000    5.459452
Si    2.727635    2.727635    5.458875
Si    2.725036    0.000014    8.193774
Si    0.000014    2.725036    8.193774
Si    1.363104    1.363104    6.825601
Si    4.091915    4.091915    6.822368
Si    4.094706    1.363939    9.552628
Si    1.363939    4.094706    9.552628
Si    0.000000    0.000000   10.953993
Si    2.730421    2.730421   10.915552
Si    1.378025    1.378025   12.304408
Si    2.732011    5.457575   -8.191378
Si   -0.000829    5.458986   -5.458986
Si    2.732011    8.191378   -5.457575
Si    2.728721    5.459785   -2.728721
Si   -0.000014    8.193774   -2.725036
Si    1.365431    6.827939   -4.093653
Si    4.093653    6.827939   -1.365431
Si    1.361328    9.571968   -1.361328
Si    0.000000    5.459452    0.000000
Si    2.725036    8.193774    0.000014
Si    2.727635    5.458875    2.727635
Si    0.000014    8.193774    2.725036
Si    1.363104    6.825601    1.363104
Si    4.094706    9.552628    1.363939
Si    4.091915    6.822368    4.091915
Si    1.363939    9.552628    4.094706
Si    0.000829    5.458986    5.458986
Si    2.731235    8.188789    5.459692
Si    2.731235    5.459692    8.188789
Si    1.364861    6.824229    6.824229
Si    2.723910   10.942012   -2.723910
Si    0.000000   10.953993    0.000000
Si    2.730421   10.915552    2.730421
Si    1.378025   12.304408    1.378025
Si    6.826902   -6.826902   -6.826902
Si    5.459692   -8.188789   -2.731235
Si    6.824229   -6.824229   -1.364861
Si    5.457575   -8.191378    2.732011
Si    5.459692   -2.731235   -8.188789
Si    6.824229   -1.364861   -6.824229
Si    5.460500   -5.460500   -5.460500
Si    8.188789   -2.731235   -5.459692
Si    8.188789   -5.459692   -2.731235
Si    5.458875   -2.727635   -2.727635
Si    6.822368   -4.091915   -4.091915
Si    9.552628   -1.363939   -4.094706
Si    9.552628   -4.094706   -1.363939
Si    6.825601   -1.363104   -1.363104
Si    5.458986   -5.458986   -0.000829
Si    8.193774   -2.725036   -0.000014
Si    8.191378   -5.457575    2.732011
Si    5.459785   -2.728721    2.728721
Si    6.827939   -4.093653    1.365431
Si    9.571968   -1.361328    1.361328
Si    6.827939   -1.365431    4.093653
Si    5.457284   -5.457284    5.457284
Si    8.191378   -2.732011    5.457575
Si    5.457575   -2.732011    8.191378
Si    5.457575    2.732011   -8.191378
Si    5.458986   -0.000829   -5.458986
Si    8.191378    2.732011   -5.457575
Si    8.193774   -0.000014   -2.725036
Si    5.459785    2.728721   -2.728721
Si    6.827939    1.365431   -4.093653
Si    9.571968    1.361328   -1.361328
Si    6.827939    4.093653   -1.365431
Si    5.459452    0.000000    0.000000
Si    8.193774    2.725036    0.000014
Si    8.193774    0.000014    2.725036
Si    5.458875    2.727635    2.727635
Si    6.825601    1.363104    1.363104
Si    9.552628    4.094706    1.363939
Si    9.552628    1.363939    4.094706
Si    6.822368    4.091915    4.091915
Si    5.458986    0.000829    5.458986
Si    8.188789    2.731235    5.459692
Si    5.459692    2.731235    8.188789
Si    6.824229    1.364861    6.824229
Si    5.457284    5.457284   -5.457284
Si    8.191378    5.457575   -2.732011
Si    5.457575    8.191378   -2.732011
Si    5.458986    5.458986    0.000829
Si    8.188789    5.459692    2.731235
Si    5.459692    8.188789    2.731235
Si    6.824229    6.824229    1.364861
Si    5.460500    5.460500    5.460500
Si    6.826902    6.826902    6.826902
Si   10.915552   -2.730421   -2.730421
Si   12.304408   -1.378025   -1.378025
Si   10.942012   -2.723910    2.723910
Si   10.942012    2.723910   -2.723910
Si   10.953993    0.000000    0.000000
Si   10.915552    2.730421    2.730421
Si   12.304408    1.378025    1.378025
