420

Si  -12.273417   -1.336197   -4.085436
Si  -12.273417   -4.085436   -1.336197
Si  -13.624438   -2.837317    0.102742
Si  -12.250038   -4.094138    4.094138
Si  -13.624438    0.102742   -2.837317
Si  -12.250038    4.094138   -4.094138
Si  -13.624438    2.837317   -0.102742
Si  -13.624438   -0.102742    2.837317
Si  -12.273417    4.085436    1.336197
Si  -12.273417    1.336197    4.085436
Si   -6.804143   -6.804143   -4.077837
Si   -6.809476   -9.531082   -1.350840
Si   -9.531082   -6.809476   -1.350840
Si   -8.169798   -8.169798   -0.017432
Si   -6.805832   -9.536909    4.113714
Si   -9.536909   -6.805832    4.113714
Si   -8.171786   -8.171786    5.441295
Si   -6.809476   -1.350840   -9.531082
Si   -6.804143   -4.077837   -6.804143
Si   -9.531082   -1.350840   -6.809476
Si   -9.546449   -4.069936   -4.069936
Si  -10.891765   -5.445757   -0.022176
Si  -10.902077   -5.441801    5.441801
Si   -8.171786   -5.441295    8.171786
Si   -9.536909   -4.113714    6.805832
Si   -6.805832   -4.113714    9.536909
Si   -8.169798   -0.017432   -8.169798
Si   -6.805832    4.113714   -9.536909
Si   -9.536909    4.113714   -6.805832
Si  -10.891765   -0.022176   -5.445757
Si   -9.546449    4.069936    4.069936
Si  -10.891765    0.022176    5.445757
Si   -8.169798    0.017432    8.169798
Si   -9.531082    1.350840    6.809476
Si   -6.804143    4.077837    6.804143
Si   -6.809476    1.350840    9.531082
Si   -8.171786    5.441295   -8.171786
Si  -10.902077    5.441801   -5.441801
Si   -8.171786    8.171786   -5.441295
Si   -9.536909    6.805832   -4.113714
Si   -6.805832    9.536909   -4.113714
Si  -10.891765    5.445757    0.022176
Si   -8.169798    8.169798    0.017432
Si   -9.531082    6.809476    1.350840
Si   -6.809476    9.531082    1.350840
Si   -6.804143    6.804143    4.077837
Si   -1.336197  -12.273417   -4.085436
Si   -4.085436  -12.273417   -1.336197
Si   -2.837317  -13.624438    0.102742
Si   -4.094138  -12.250038    4.094138
Si   -1.350840   -6.809476   -9.531082
Si   -1.350840   -9.531082   -6.809476
Si   -4.077837   -6.804143   -6.804143
Si   -4.069936   -9.546449   -4.069936
Si   -5.445757  -10.891765   -0.022176
Si   -5.441801  -10.902077    5.441801
Si   -5.441295   -8.171786    8.171786
Si   -4.113714   -9.536909    6.805832
Si   -4.113714   -6.805832    9.536909
Si   -1.336197   -4.085436  -12.273417
Si   -4.085436   -1.336197  -12.273417
Si   -4.069936   -4.069936   -9.546449
Si   -5.441801   -5.441801   10.902077
Si   -4.094138   -4.094138   12.250038
Si   -2.837317    0.102742  -13.624438
Si   -4.094138    4.094138  -12.250038
Si   -5.445757   -0.022176  -10.891765
Si   -4.069936    4.069936    9.546449
Si   -5.445757    0.022176   10.891765
Si   -2.837317   -0.102742   13.624438
Si   -4.085436    1.336197   12.273417
Si   -1.336197    4.085436   12.273417
Si   -5.441801    5.441801  -10.902077
Si   -5.441295    8.171786   -8.171786
Si   -4.113714    6.805832   -9.536909
Si   -4.113714    9.536909   -6.805832
Si   -4.069936    9.546449    4.069936
Si   -4.077837    6.804143    6.804143
Si   -1.350840    9.531082    6.809476
Si   -1.350840    6.809476    9.531082
Si   -5.441801   10.902077   -5.441801
Si   -4.094138   12.250038   -4.094138
Si   -5.445757   10.891765    0.022176
Si   -2.837317   13.624438   -0.102742
Si   -4.085436   12.273417    1.336197
Si   -1.336197   12.273417    4.085436
Si    0.102742  -13.624438   -2.837317
Si    4.094138  -12.250038   -4.094138
Si    2.837317  -13.624438   -0.102742
Si   -0.102742  -13.624438    2.837317
Si    4.085436  -12.273417    1.336197
Si    1.336197  -12.273417    4.085436
Si   -0.017432   -8.169798   -8.169798
Si    4.113714   -6.805832   -9.536909
Si    4.113714   -9.536909   -6.805832
Si   -0.022176  -10.891765   -5.445757
Si    4.069936   -9.546449    4.069936
Si    0.022176  -10.891765    5.445757
Si    0.017432   -8.169798    8.169798
Si    1.350840   -9.531082    6.809476
Si    4.077837   -6.804143    6.804143
Si    1.350840   -6.809476    9.531082
Si    0.102742   -2.837317  -13.624438
Si    4.094138   -4.094138  -12.250038
Si   -0.022176   -5.445757  -10.891765
Si    4.069936   -4.069936    9.546449
Si    0.022176   -5.445757   10.891765
Si   -0.102742   -2.837317   13.624438
Si    1.336197   -4.085436   12.273417
Si    4.085436   -1.336197   12.273417
Si    2.837317   -0.102742  -13.624438
Si   -0.102742    2.837317  -13.624438
Si    4.085436    1.336197  -12.273417
Si    1.336197    4.085436  -12.273417
Si    4.069936    4.069936   -9.546449
Si    2.837317    0.102742   13.624438
Si    0.102742    2.837317   13.624438
Si    4.094138    4.094138   12.250038
Si    0.022176    5.445757  -10.891765
Si    0.017432    8.169798   -8.169798
Si    1.350840    6.809476   -9.531082
Si    4.077837    6.804143   -6.804143
Si    1.350840    9.531082   -6.809476
Si    4.069936    9.546449   -4.069936
Si   -0.017432    8.169798    8.169798
Si    4.113714    9.536909    6.805832
Si    4.113714    6.805832    9.536909
Si   -0.022176    5.445757   10.891765
Si    0.022176   10.891765   -5.445757
Si   -0.102742   13.624438   -2.837317
Si    1.336197   12.273417   -4.085436
Si    4.085436   12.273417   -1.336197
Si    2.837317   13.624438    0.102742
Si    0.102742   13.624438    2.837317
Si    4.094138   12.250038    4.094138
Si   -0.022176   10.891765    5.445757
Si    5.441295   -8.171786   -8.171786
Si    5.441801  -10.902077   -5.441801
Si    8.171786   -8.171786   -5.441295
Si    6.805832   -9.536909   -4.113714
Si    9.536909   -6.805832   -4.113714
Si    5.445757  -10.891765    0.022176
Si    8.169798   -8.169798    0.017432
Si    6.809476   -9.531082    1.350840
Si    9.531082   -6.809476    1.350840
Si    6.804143   -6.804143    4.077837
Si    5.441801   -5.441801  -10.902077
Si    8.171786   -5.441295   -8.171786
Si    6.805832   -4.113714   -9.536909
Si    9.536909   -4.113714   -6.805832
Si    9.546449   -4.069936    4.069936
Si    6.804143   -4.077837    6.804143
Si    9.531082   -1.350840    6.809476
Si    6.809476   -1.350840    9.531082
Si    5.445757    0.022176  -10.891765
Si    8.169798    0.017432   -8.169798
Si    6.809476    1.350840   -9.531082
Si    9.531082    1.350840   -6.809476
Si    6.804143    4.077837   -6.804143
Si    9.546449    4.069936   -4.069936
Si    8.169798   -0.017432    8.169798
Si    9.536909    4.113714    6.805832
Si    6.805832    4.113714    9.536909
Si    5.445757   -0.022176   10.891765
Si    6.804143    6.804143   -4.077837
Si    9.531082    6.809476   -1.350840
Si    6.809476    9.531082   -1.350840
Si    8.169798    8.169798   -0.017432
Si    9.536909    6.805832    4.113714
Si    6.805832    9.536909    4.113714
Si    8.171786    8.171786    5.441295
Si    8.171786    5.441295    8.171786
Si    5.441295    8.171786    8.171786
Si    5.441801    5.441801   10.902077
Si    5.445757   10.891765   -0.022176
Si    5.441801   10.902077    5.441801
Si   10.902077   -5.441801   -5.441801
Si   12.250038   -4.094138   -4.094138
Si   10.891765   -5.445757    0.022176
Si   13.624438   -2.837317   -0.102742
Si   12.273417   -4.085436    1.336197
Si   12.273417   -1.336197    4.085436
Si   10.891765    0.022176   -5.445757
Si   13.624438   -0.102742   -2.837317
Si   12.273417    1.336197   -4.085436
Si   12.273417    4.085436   -1.336197
Si   13.624438    2.837317    0.102742
Si   13.624438    0.102742    2.837317
Si   12.250038    4.094138    4.094138
Si   10.891765   -0.022176    5.445757
Si   10.891765    5.445757   -0.022176
Si   10.902077    5.441801    5.441801
 H  -13.137727   -2.205156   -4.956032
 H  -13.137727   -4.956032   -2.205156
 H  -13.137727    4.956032    2.205156
 H  -13.137727    2.205156    4.956032
 H   -7.671809   -7.671809   -4.947080
 H   -7.675975  -10.399115   -2.220244
 H  -10.399115   -7.675975   -2.220244
 H   -9.036522   -9.036522    0.853263
 H   -7.672899  -10.398676    3.238446
 H  -10.398676   -7.672899    3.238446
 H   -9.038631   -9.038631    6.311895
 H   -7.675975   -2.220244  -10.399115
 H   -7.671809   -4.947080   -7.671809
 H  -10.399115   -2.220244   -7.675975
 H  -10.411710   -4.939785   -4.939785
 H  -11.754704   -6.311924    0.853665
 H  -11.765243   -6.312107    6.312107
 H   -9.038631   -6.311895    9.038631
 H  -10.398676   -3.238446    7.672899
 H   -7.672899   -3.238446   10.398676
 H   -9.036522    0.853263   -9.036522
 H   -7.672899    3.238446  -10.398676
 H  -10.398676    3.238446   -7.672899
 H  -11.754704    0.853665   -6.311924
 H  -10.411710    4.939785    4.939785
 H  -11.754704   -0.853665    6.311924
 H   -9.036522   -0.853263    9.036522
 H  -10.399115    2.220244    7.675975
 H   -7.671809    4.947080    7.671809
 H   -7.675975    2.220244   10.399115
 H   -9.038631    6.311895   -9.038631
 H  -11.765243    6.312107   -6.312107
 H   -9.038631    9.038631   -6.311895
 H  -10.398676    7.672899   -3.238446
 H   -7.672899   10.398676   -3.238446
 H  -11.754704    6.311924   -0.853665
 H   -9.036522    9.036522   -0.853263
 H  -10.399115    7.675975    2.220244
 H   -7.675975   10.399115    2.220244
 H   -7.671809    7.671809    4.947080
 H   -2.205156  -13.137727   -4.956032
 H   -4.956032  -13.137727   -2.205156
 H   -2.220244   -7.675975  -10.399115
 H   -2.220244  -10.399115   -7.675975
 H   -4.947080   -7.671809   -7.671809
 H   -4.939785  -10.411710   -4.939785
 H   -6.311924  -11.754704    0.853665
 H   -6.312107  -11.765243    6.312107
 H   -6.311895   -9.038631    9.038631
 H   -3.238446  -10.398676    7.672899
 H   -3.238446   -7.672899   10.398676
 H   -2.205156   -4.956032  -13.137727
 H   -4.956032   -2.205156  -13.137727
 H   -4.939785   -4.939785  -10.411710
 H   -6.312107   -6.312107   11.765243
 H   -6.311924    0.853665  -11.754704
 H   -4.939785    4.939785   10.411710
 H   -6.311924   -0.853665   11.754704
 H   -4.956032    2.205156   13.137727
 H   -2.205156    4.956032   13.137727
 H   -6.312107    6.312107  -11.765243
 H   -6.311895    9.038631   -9.038631
 H   -3.238446    7.672899  -10.398676
 H   -3.238446   10.398676   -7.672899
 H   -4.939785   10.411710    4.939785
 H   -4.947080    7.671809    7.671809
 H   -2.220244   10.399115    7.675975
 H   -2.220244    7.675975   10.399115
 H   -6.312107   11.765243   -6.312107
 H   -6.311924   11.754704   -0.853665
 H   -4.956032   13.137727    2.205156
 H   -2.205156   13.137727    4.956032
 H    4.956032  -13.137727    2.205156
 H    2.205156  -13.137727    4.956032
 H    0.853263   -9.036522   -9.036522
 H    3.238446   -7.672899  -10.398676
 H    3.238446  -10.398676   -7.672899
 H    0.853665  -11.754704   -6.311924
 H    4.939785  -10.411710    4.939785
 H   -0.853665  -11.754704    6.311924
 H   -0.853263   -9.036522    9.036522
 H    2.220244  -10.399115    7.675975
 H    4.947080   -7.671809    7.671809
 H    2.220244   -7.675975   10.399115
 H    0.853665   -6.311924  -11.754704
 H    4.939785   -4.939785   10.411710
 H   -0.853665   -6.311924   11.754704
 H    2.205156   -4.956032   13.137727
 H    4.956032   -2.205156   13.137727
 H    4.956032    2.205156  -13.137727
 H    2.205156    4.956032  -13.137727
 H    4.939785    4.939785  -10.411710
 H   -0.853665    6.311924  -11.754704
 H   -0.853263    9.036522   -9.036522
 H    2.220244    7.675975  -10.399115
 H    4.947080    7.671809   -7.671809
 H    2.220244   10.399115   -7.675975
 H    4.939785   10.411710   -4.939785
 H    0.853263    9.036522    9.036522
 H    3.238446   10.398676    7.672899
 H    3.238446    7.672899   10.398676
 H    0.853665    6.311924   11.754704
 H   -0.853665   11.754704   -6.311924
 H    2.205156   13.137727   -4.956032
 H    4.956032   13.137727   -2.205156
 H    0.853665   11.754704    6.311924
 H    6.311895   -9.038631   -9.038631
 H    6.312107  -11.765243   -6.312107
 H    9.038631   -9.038631   -6.311895
 H    7.672899  -10.398676   -3.238446
 H   10.398676   -7.672899   -3.238446
 H    6.311924  -11.754704   -0.853665
 H    9.036522   -9.036522   -0.853263
 H    7.675975  -10.399115    2.220244
 H   10.399115   -7.675975    2.220244
 H    7.671809   -7.671809    4.947080
 H    6.312107   -6.312107  -11.765243
 H    9.038631   -6.311895   -9.038631
 H    7.672899   -3.238446  -10.398676
 H   10.398676   -3.238446   -7.672899
 H   10.411710   -4.939785    4.939785
 H    7.671809   -4.947080    7.671809
 H   10.399115   -2.220244    7.675975
 H    7.675975   -2.220244   10.399115
 H    6.311924   -0.853665  -11.754704
 H    9.036522   -0.853263   -9.036522
 H    7.675975    2.220244  -10.399115
 H   10.399115    2.220244   -7.675975
 H    7.671809    4.947080   -7.671809
 H   10.411710    4.939785   -4.939785
 H    9.036522    0.853263    9.036522
 H   10.398676    3.238446    7.672899
 H    7.672899    3.238446   10.398676
 H    6.311924    0.853665   11.754704
 H    7.671809    7.671809   -4.947080
 H   10.399115    7.675975   -2.220244
 H    7.675975   10.399115   -2.220244
 H    9.036522    9.036522    0.853263
 H   10.398676    7.672899    3.238446
 H    7.672899   10.398676    3.238446
 H    9.038631    9.038631    6.311895
 H    9.038631    6.311895    9.038631
 H    6.311895    9.038631    9.038631
 H    6.312107    6.312107   11.765243
 H    6.311924   11.754704    0.853665
 H    6.312107   11.765243    6.312107
 H   11.765243   -6.312107   -6.312107
 H   11.754704   -6.311924   -0.853665
 H   13.137727   -4.956032    2.205156
 H   13.137727   -2.205156    4.956032
 H   11.754704   -0.853665   -6.311924
 H   13.137727    2.205156   -4.956032
 H   13.137727    4.956032   -2.205156
 H   11.754704    0.853665    6.311924
 H   11.754704    6.311924    0.853665
 H   11.765243    6.312107    6.312107
 H  -14.337817   -3.768640    1.035944
 H  -14.664211   -2.076331   -0.663267
 H  -13.135816   -4.944199    3.235079
 H  -13.135816   -3.235079    4.944199
 H  -14.664211   -0.663267   -2.076331
 H  -14.337817    1.035944   -3.768640
 H  -13.135816    4.944199   -3.235079
 H  -13.135816    3.235079   -4.944199
 H  -14.664211    2.076331    0.663267
 H  -14.337817    3.768640   -1.035944
 H  -14.337817   -1.035944    3.768640
 H  -14.664211    0.663267    2.076331
 H   -2.076331  -14.664211   -0.663267
 H   -3.768640  -14.337817    1.035944
 H   -3.235079  -13.135816    4.944199
 H   -4.944199  -13.135816    3.235079
 H   -3.235079   -4.944199   13.135816
 H   -4.944199   -3.235079   13.135816
 H   -3.768640    1.035944  -14.337817
 H   -2.076331   -0.663267  -14.664211
 H   -4.944199    3.235079  -13.135816
 H   -3.235079    4.944199  -13.135816
 H   -2.076331    0.663267   14.664211
 H   -3.768640   -1.035944   14.337817
 H   -4.944199   13.135816   -3.235079
 H   -3.235079   13.135816   -4.944199
 H   -3.768640   14.337817   -1.035944
 H   -2.076331   14.664211    0.663267
 H    1.035944  -14.337817   -3.768640
 H   -0.663267  -14.664211   -2.076331
 H    3.235079  -13.135816   -4.944199
 H    4.944199  -13.135816   -3.235079
 H    3.768640  -14.337817   -1.035944
 H    2.076331  -14.664211    0.663267
 H    0.663267  -14.664211    2.076331
 H   -1.035944  -14.337817    3.768640
 H   -0.663267   -2.076331  -14.664211
 H    1.035944   -3.768640  -14.337817
 H    4.944199   -3.235079  -13.135816
 H    3.235079   -4.944199  -13.135816
 H   -1.035944   -3.768640   14.337817
 H    0.663267   -2.076331   14.664211
 H    2.076331    0.663267  -14.664211
 H    3.768640   -1.035944  -14.337817
 H   -1.035944    3.768640  -14.337817
 H    0.663267    2.076331  -14.664211
 H    3.768640    1.035944   14.337817
 H    2.076331   -0.663267   14.664211
 H   -0.663267    2.076331   14.664211
 H    1.035944    3.768640   14.337817
 H    4.944199    3.235079   13.135816
 H    3.235079    4.944199   13.135816
 H    0.663267   14.664211   -2.076331
 H   -1.035944   14.337817   -3.768640
 H    2.076331   14.664211   -0.663267
 H    3.768640   14.337817    1.035944
 H    1.035944   14.337817    3.768640
 H   -0.663267   14.664211    2.076331
 H    3.235079   13.135816    4.944199
 H    4.944199   13.135816    3.235079
 H   13.135816   -3.235079   -4.944199
 H   13.135816   -4.944199   -3.235079
 H   14.664211   -2.076331    0.663267
 H   14.337817   -3.768640   -1.035944
 H   14.337817   -1.035944   -3.768640
 H   14.664211    0.663267   -2.076331
 H   14.337817    3.768640    1.035944
 H   14.664211    2.076331   -0.663267
 H   14.664211   -0.663267    2.076331
 H   14.337817    1.035944    3.768640
 H   13.135816    4.944199    3.235079
 H   13.135816    3.235079    4.944199
