60

 H   -2.216063   -2.216063   -4.944676
 H   -2.216063   -4.944676   -2.216063
 H   -4.944676   -2.216063   -2.216063
 H   -4.956029   -4.956029    0.522263
 H   -0.522263   -4.956029    4.956029
 H   -4.956029   -0.522263    4.956029
 H   -4.956029    0.522263   -4.956029
 H   -0.522263    4.956029   -4.956029
 H   -4.956029    4.956029   -0.522263
 H   -4.944676    2.216063    2.216063
 H   -2.216063    4.944676    2.216063
 H   -2.216063    2.216063    4.944676
 H    0.522263   -4.956029   -4.956029
 H    4.956029   -0.522263   -4.956029
 H    4.956029   -4.956029   -0.522263
 H    2.216063   -4.944676    2.216063
 H    4.944676   -2.216063    2.216063
 H    2.216063   -2.216063    4.944676
 H    2.216063    2.216063   -4.944676
 H    4.944676    2.216063   -2.216063
 H    2.216063    4.944676   -2.216063
 H    4.956029    4.956029    0.522263
 H    4.956029    0.522263    4.956029
 H    0.522263    4.956029    4.956029
 H   -2.172129   -6.577122    2.172129
 H   -3.831486   -6.045126    3.831486
 H   -6.045126   -3.831486    3.831486
 H   -6.577122   -2.172129    2.172129
 H   -2.172129   -2.172129    6.577122
 H   -3.831486   -3.831486    6.045126
 H   -3.831486    3.831486   -6.045126
 H   -2.172129    2.172129   -6.577122
 H   -6.577122    2.172129   -2.172129
 H   -6.045126    3.831486   -3.831486
 H   -6.320163   -0.848812    0.848812
 H   -6.320163    0.848812   -0.848812
 H   -3.831486    6.045126   -3.831486
 H   -2.172129    6.577122   -2.172129
 H    2.172129   -2.172129   -6.577122
 H    3.831486   -3.831486   -6.045126
 H    3.831486   -6.045126   -3.831486
 H    2.172129   -6.577122   -2.172129
 H    0.848812   -6.320163   -0.848812
 H   -0.848812   -6.320163    0.848812
 H   -0.848812    0.848812   -6.320163
 H    0.848812   -0.848812   -6.320163
 H   -0.848812   -0.848812    6.320163
 H    0.848812    0.848812    6.320163
 H    3.831486    3.831486    6.045126
 H    2.172129    2.172129    6.577122
 H    0.848812    6.320163    0.848812
 H   -0.848812    6.320163   -0.848812
 H    2.172129    6.577122    2.172129
 H    3.831486    6.045126    3.831486
 H    6.577122   -2.172129   -2.172129
 H    6.045126   -3.831486   -3.831486
 H    6.320163   -0.848812   -0.848812
 H    6.320163    0.848812    0.848812
 H    6.045126    3.831486    3.831486
 H    6.577122    2.172129    2.172129
