43

Si   -1.347528   -1.347528   -4.078468
Si   -1.347528   -4.078468   -1.347528
Si   -4.078468   -1.347528   -1.347528
Si   -2.860846   -5.440628    2.860846
Si   -5.440628   -2.860846    2.860846
Si   -4.092124   -4.092124    1.397490
Si   -1.397490   -4.092124    4.092124
Si   -4.092124   -1.397490    4.092124
Si   -2.860846   -2.860846    5.440628
Si   -2.860846    2.860846   -5.440628
Si   -5.440628    2.860846   -2.860846
Si   -4.092124    1.397490   -4.092124
Si   -1.397490    4.092124   -4.092124
Si   -4.092124    4.092124   -1.397490
Si   -5.426483    0.000000    0.000000
Si   -4.078468    1.347528    1.347528
Si   -1.347528    4.078468    1.347528
Si   -1.347528    1.347528    4.078468
Si   -2.860846    5.440628   -2.860846
Si    2.860846   -2.860846   -5.440628
Si    2.860846   -5.440628   -2.860846
Si    1.397490   -4.092124   -4.092124
Si    4.092124   -1.397490   -4.092124
Si    4.092124   -4.092124   -1.397490
Si   -0.000000   -5.426483    0.000000
Si    1.347528   -4.078468    1.347528
Si    4.078468   -1.347528    1.347528
Si    1.347528   -1.347528    4.078468
Si   -0.000000   -0.000000   -5.426483
Si    1.347528    1.347528   -4.078468
Si    4.078468    1.347528   -1.347528
Si    1.347528    4.078468   -1.347528
Si    4.092124    4.092124    1.397490
Si    4.092124    1.397490    4.092124
Si    1.397490    4.092124    4.092124
Si    0.000000    0.000000    5.426483
Si    2.860846    2.860846    5.440628
Si    0.000000    5.426483    0.000000
Si    2.860846    5.440628    2.860846
Si    5.440628   -2.860846   -2.860846
Si    5.426483    0.000000    0.000000
Si    5.440628    2.860846    2.860846
