264

C 10.183024981 1.313534398 9.184859675
C 10.23389545 17.889059504 9.176270176
C 10.684548686 0.68664573 -0.08445232
C 10.724574057 18.333564099 -0.101859535
C 10.929921985 0.089136106 9.183834005
C 1.229176344 10.275828759 9.18926571
C 12.404287608 0.057960437 9.198711724
C 1.314385447 8.86289901 9.161115572
C 13.169737113 14.890118558 3.857930094
C 13.190162001 4.122114619 3.977693752
C 13.20813926 15.054539626 14.267440574
C 13.213062649 5.737516275 2.048001409
C 13.245093929 4.192494116 14.233643799
C 13.258631457 13.336618377 16.148288078
C 13.315707291 13.234149633 2.012785552
C 13.403250209 5.72235438 16.183290853
C 13.578011911 15.441503092 5.095505141
C 13.650282825 3.708482901 13.002497563
C 13.725607991 3.700338578 5.180834817
C 13.727969998 15.461385588 13.015273836
C 13.759574131 13.87771504 14.872088696
C 13.77684662 5.230904692 3.329745436
C 13.816847288 13.791934373 3.302554421
C 13.926363944 5.243716717 14.891167754
C 1.409432574 9.514829708 -0.10529665
C 14.686971189 14.830279913 5.767663809
C 14.751176114 14.759040244 12.388855905
C 14.779105355 4.288481858 12.382453615
C 14.80515935 13.190752707 14.212231872
C 14.839549136 4.341788112 5.772248726
C 14.871535715 5.88338344 3.884625678
C 14.910376054 13.190114819 3.963513922
C 15.081257097 5.821677003 14.268117498
C 15.205040644 15.347019027 7.041879233
C 15.257882833 3.782173203 11.0595944
C 15.268637004 15.2439952 11.072576405
C 15.307594318 13.610080444 12.99324765
C 15.323660619 13.713389841 5.175708685
C 15.363193767 3.811537171 7.038228552
C 15.437800514 5.463019737 5.110489246
C 15.473063957 5.320261747 13.003319102
C 16.163857131 9.561868338 -0.133489231
C 17.636765507 9.592439075 -0.094413244
C 17.837048596 10.19629422 9.19231852
C 17.900109493 8.813078879 9.182824827
C 18.338022733 8.363736414 -0.093164698
C 18.378013028 10.819705406 -0.07011334
C -0.019217237 12.422310138 9.231212487
C 0.002104874 10.930240521 9.207604888
C 2.900464831 9.495122393 -0.13908639
C 3.550376949 13.757290332 13.023396864
C 3.598383531 13.565011723 5.10257829
C 3.694416092 15.187530441 7.051576282
C 3.706918015 5.405196389 13.005743478
C 3.722935379 5.312576419 5.168766235
C 3.758528847 3.77800633 11.076654855
C 3.776498007 15.300816582 11.083319734
C 3.836359502 3.683677971 7.040064189
C 3.963123099 13.225075005 14.267308805
C 4.139554927 5.831794565 3.956021379
C 4.142791604 13.160691471 3.861585375
C 4.211543539 14.672177537 5.775132674
C 4.215449824 5.828178666 14.221968087
C 4.26043181 14.775704584 12.396448585
C 4.272076191 4.266427997 12.392715695
C 4.361585831 4.200845927 5.767655272
C 5.149256586 13.760126475 14.866807048
C 5.236571706 5.22976947 3.302284065
C 5.238477394 13.809351082 3.303480501
C 5.276559761 5.152814765 14.867991063
C 5.30927872 3.5749827 13.008686795
C 5.327041022 15.309343551 5.181620906
C 5.418241551 15.316521054 12.995769487
C 5.477195901 3.592688004 5.104853863
C 5.696422212 13.243256861 16.135972574
C 5.732538891 5.777489232 2.007276443
C 5.786944908 13.311345215 2.009488992
C 5.787262692 5.694502082 16.142688153
C 5.83484478 3.985893583 14.254409623
C 5.840828109 14.804343493 14.210066766
C 5.84460269 14.899608944 3.965423425
C 5.889206181 4.139346611 3.867029291
C 0.059965098 6.643622328 9.197542323
C 6.624611846 -0.023247899 9.223026325
C 0.679990577 8.305833487 -0.098461597
C 0.750325407 10.739848271 -0.082520737
C 8.11604364 -0.001197036 9.205924044
C 8.229110096 0.673859708 -0.01150184
C 8.290778659 18.292073201 -0.054819202
C 8.76996459 1.226494614 9.206754653
C 8.850617796 17.8241419 9.180792448
C 0.090044155 8.116701086 9.177020082
C 9.464274868 1.401091109 -0.05473897
C 9.500074911 16.128060388 -0.151446366
C 9.505909272 17.618723726 -0.104497079
C 9.513973346 2.873987986 -0.088893051
H 10.190747562 3.373399861 9.25345526
H 10.828746361 16.978602244 9.168639136
H 10.989331766 11.062679415 -0.583396594
H 11.206538515 7.92619054 -0.792062546
H 11.604430971 1.267220589 -0.097040808
H 11.666498172 17.792737121 -0.121495878
H 11.777580584 2.615232114 9.219475524
H 11.786547552 15.450510534 15.696877273
H 11.790361545 16.544900556 14.320018935
H 1.211160888 7.358307316 -0.102414666
H 12.229657256 16.989504461 5.009009605
H 12.32266039 15.326589552 3.332533104
H 12.332617261 3.630976363 3.52714866
H 12.377824799 3.772665242 14.736888794
H 13.125575828 2.897437136 12.505952914
H 13.258876972 16.967570716 6.430756516
H 13.30108656 2.850512724 5.709277437
H 13.325138875 16.348051233 12.529402526
H 1.337316055 11.656684436 -0.078522404
H 1.509335534 1.604311739 9.758683645
H 15.200697042 12.303900875 14.700989717
H 15.292488884 6.741943918 3.365393003
H 15.395339678 12.327249148 3.516106792
H 15.499628174 7.227436682 15.711630632
H 1.568986757 17.588104835 9.616126825
H 16.110658393 13.078230348 12.49128791
H 16.1611269 13.273621255 5.711667063
H 16.342596838 5.743365119 12.503819803
H 16.560380305 7.251740091 14.306447338
H 16.777169829 12.107738634 -0.115224182
H 16.887223472 10.723464398 9.194627449
H 16.976724983 5.769493397 6.432572911
H 16.977938417 6.819894729 5.026785563
H 16.989173988 8.218779327 9.181263943
H 17.476613073 1.520003892 9.735870669
H 17.504070538 17.412351775 9.773801066
H 17.75024375 7.448658797 -0.095995395
H 18.356792179 12.877789989 -0.118004343
H 2.043901459 12.226633857 5.015537022
H 2.073473953 13.256989817 6.43562447
H 2.142927905 10.867456148 9.194441572
H 2.497529464 11.787056197 14.300100316
H 2.616765761 7.270002929 9.189308691
H 2.653221974 13.369695784 12.544017268
H 2.879925376 5.750606975 5.697207336
H 2.889505794 5.925930517 12.515210458
H 3.372795846 8.856972621 9.204942733
H 3.589523604 11.781204027 15.672620508
H 3.653356629 6.68967518 3.50048925
H 3.704883368 12.315738525 3.333718736
H 3.810374282 6.706814775 14.717742395
H 5.718761641 2.694663993 12.517098703
H 5.771482454 16.143832398 5.718314423
H 5.776112778 2.066689946 6.438694643
H 5.954888102 16.115753434 12.492742147
H 6.176586488 0.712124052 -0.072443397
H 6.705114963 15.386097425 3.515046272
H 6.733278216 15.191284324 14.695546941
H 6.742365624 3.706310092 3.34821447
H 6.812725862 2.035624211 5.025309335
H 6.951085276 2.280072837 -0.019693016
H 7.306579335 3.646967059 15.632651386
H 7.309518789 2.559536407 14.259610287
H 7.368508423 17.713907845 -0.043666907
H 7.959425159 11.007780634 -0.58738015
H 8.014068529 7.9848896 -0.594498999
H 8.176978424 2.13907958 9.222147924
H 8.325718676 16.872996358 9.171755116
N 10.765381478 2.546757347 9.154459977
N 12.232209784 15.808166623 14.854463274
N 12.888262423 16.503607098 5.604237216
N 15.827356663 6.808176503 14.844252
N 16.500261764 6.152652347 5.619124297
N 17.787439894 12.047955908 -0.011927739
N 2.541299469 12.870146052 5.618152484
N 2.547253613 8.280713328 9.104658428
N 3.199265849 12.255388407 14.859679058
N 6.171166329 2.53734651 5.626642818
N 6.823533798 3.23604634 14.835449358
N 7.00410214 1.271039151 0.095627212
O 10.634482878 15.525265814 -0.128005802
O 10.648209581 3.467921802 -0.16527976
O 1.100336188 13.040986138 9.29572867
O 11.556667251 11.565393391 0.026330872
O 11.618956374 7.434773701 -0.059722562
O 1.183135179 5.999672375 9.176683362
O 12.237873784 5.128083943 1.517180744
O 12.257067257 13.773111434 1.514192786
O 12.277645217 13.923833929 16.730297484
O 12.35519681 5.146186132 16.670250141
O 13.009056596 17.957135238 9.243258952
O 13.047883598 1.180838262 9.175976565
O 13.109151032 9.473648173 16.964651693
O 13.496474333 9.556887872 1.243281393
O 13.751597466 6.793747806 1.545402642
O 13.827184279 12.284650998 16.632165009
O 13.926784289 12.265286445 1.472317921
O 13.998214966 6.693702688 16.775464574
O 14.630886031 2.81847407 10.51969343
O 14.644817744 16.353406319 7.595809614
O 14.690088145 16.271317754 10.55516732
O 14.784648092 2.782859836 7.561099796
O 15.096653502 0.002170671 7.831134944
O 15.45000675 0.058401797 10.261209016
O 15.515790243 10.673832428 -0.210815584
O 15.565514894 8.41900851 -0.111951683
O 16.233779795 14.768330831 7.571428148
O 16.242098844 14.623048523 10.544135469
O 16.287775403 4.359341065 10.548053985
O 16.375484949 4.365597532 7.589980924
O 16.964866102 16.973197072 9.092628892
O 17.001170362 2.072857106 9.091616387
O 17.881271207 13.007326346 9.184535663
O 17.969924286 6.038374148 9.24743481
O 2.05703401 16.979207772 9.035241838
O 2.058018415 2.042670553 9.084512345
O 2.685068971 14.632593476 7.60123339
O 2.744370843 14.731773571 10.56938419
O 2.798807813 4.408216846 10.532582095
O 2.800579439 4.259667785 7.557918048
O 3.493551184 8.364007154 -0.195999325
O 3.51438042 10.624465144 -0.122900402
O 3.584066391 -0.070557013 10.248913332
O 3.992548889 -0.0033581 7.827473578
O 4.281728094 16.211613461 7.584940798
O 4.332173018 2.742078318 10.575817711
O 4.397340824 2.682935422 7.601668332
O 4.405879216 16.268322213 10.552971294
O 5.113316581 12.25357855 16.707732129
O 5.123189495 6.754553454 1.475290328
O 5.220404177 6.745736822 16.6263664
O 5.234337369 12.266365228 1.499063828
O 5.531312678 9.462553123 1.255732474
O 5.941627081 9.521633396 16.981701657
O 6.005154558 1.096929572 9.288811318
O 6.038452967 17.868638171 9.171887992
O 0.063777972 3.585368122 10.246390493
O 6.749013412 13.807289885 16.620858766
O 6.764391534 13.916216134 1.476299767
O 6.77202998 5.108448192 16.718824231
O 6.775427099 5.226926457 1.494659763
O 0.006800664 3.980127724 7.822079344
O -0.074349591 15.457512814 10.255575621
O 7.460925924 11.558351583 0.040968766
O 7.475596074 7.466945962 0.028684606
O 8.375383768 15.523345028 -0.221715917
O 8.395466929 3.527063286 -0.064431196
O 9.468065557 13.504336395 1.251762806
O -0.009475382 15.053680049 7.834155059
O 9.524834316 5.883033053 16.956041343
O 9.532525566 13.081404199 16.980164873
O 9.585123678 5.586581368 1.247178165
Ti 10.867566907 13.498704612 0.111023152
Ti 10.92188372 5.513102859 -0.083660152
Ti 1.313438585 15.100508309 9.167870273
Ti 13.455508021 10.87439737 -0.08281403
Ti 13.541160082 8.148467472 0.105635609
Ti 1.407625527 3.981288256 8.957153544
Ti 15.06685959 17.70374055 9.162496518
Ti 15.074673931 1.39990463 8.972807814
Ti 17.620845274 15.025230542 8.967169229
Ti 17.720752526 3.983407431 9.156032592
Ti 3.954048797 1.314776649 9.166200896
Ti 4.016200753 17.614364574 8.956260626
Ti 5.539410077 10.859736511 0.110312503
Ti 5.543554784 8.131009842 -0.0646184
Ti 8.138860909 13.476757517 -0.07328436
Ti 8.19479607 5.566264433 0.111982756
