  405

   Si    -12.25567199     -1.36646255      1.36646255      3.81323341
   Si    -12.25567199      1.36646255     -1.36646255      3.81323341
   Si     -6.80564131     -6.80564131      1.38235508      3.92207522
   Si     -6.80536271     -1.34641309     -4.07460048      3.90090687
   Si     -6.80536271     -4.07460048     -1.34641309      3.90090687
   Si     -9.54011693     -1.34465913     -1.34465913      3.91606084
   Si     -8.19167094     -2.73035756     -0.00010365      4.03704367
   Si     -8.17028452     -5.44155812      2.71102633      3.92282456
   Si    -10.90224630     -2.71128272      2.71128272      3.94484715
   Si     -9.53754123     -4.07721193      1.38393281      3.93208062
   Si     -6.82759771     -1.36497146      1.36497146      4.02489115
   Si     -6.82631851     -4.09633142      4.09633142      4.04474470
   Si     -9.53754123     -1.38393281      4.07721193      3.93208062
   Si     -8.17028452     -2.71102633      5.44155812      3.92282456
   Si     -6.80564131     -1.38235508      6.80564131      3.92207522
   Si     -6.80564131      1.38235508     -6.80564131      3.92207522
   Si     -8.17028452      2.71102633     -5.44155812      3.92282456
   Si     -8.19167094     -0.00010365     -2.73035756      4.03704367
   Si    -10.90224630      2.71128272     -2.71128272      3.94484715
   Si     -9.53754123      1.38393281     -4.07721193      3.93208062
   Si     -6.82631851      4.09633142     -4.09633142      4.04474470
   Si     -6.82759771      1.36497146     -1.36497146      4.02489115
   Si     -9.53754123      4.07721193     -1.38393281      3.93208062
   Si    -10.92830710     -0.00000000     -0.00000000      4.06639496
   Si     -8.19167094      2.73035756      0.00010365      4.03704367
   Si     -8.19167094      0.00010365      2.73035756      4.03704367
   Si     -9.54011693      1.34465913      1.34465913      3.91606084
   Si     -6.80536271      4.07460048      1.34641309      3.90090687
   Si     -6.80536271      1.34641309      4.07460048      3.90090687
   Si     -8.17028452      5.44155812     -2.71102633      3.92282456
   Si     -6.80564131      6.80564131     -1.38235508      3.92207522
   Si     -1.36646255    -12.25567199      1.36646255      3.81323341
   Si     -1.34641309     -6.80536271     -4.07460048      3.90090687
   Si     -1.34465913     -9.54011693     -1.34465913      3.91606084
   Si     -4.07460048     -6.80536271     -1.34641309      3.90090687
   Si     -2.73035756     -8.19167094     -0.00010365      4.03704367
   Si     -2.71128272    -10.90224630      2.71128272      3.94484715
   Si     -5.44155812     -8.17028452      2.71102633      3.92282456
   Si     -4.07721193     -9.53754123      1.38393281      3.93208062
   Si     -1.36497146     -6.82759771      1.36497146      4.02489115
   Si     -1.38393281     -9.53754123      4.07721193      3.93208062
   Si     -4.09633142     -6.82631851      4.09633142      4.04474470
   Si     -2.71102633     -8.17028452      5.44155812      3.92282456
   Si     -1.38235508     -6.80564131      6.80564131      3.92207522
   Si     -1.34465913     -1.34465913     -9.54011693      3.91606084
   Si     -1.34641309     -4.07460048     -6.80536271      3.90090687
   Si     -4.07460048     -1.34641309     -6.80536271      3.90090687
   Si     -2.72819888     -2.72819888     -5.45837602      4.02790111
   Si     -2.72819888     -5.45837602     -2.72819888      4.02790111
   Si     -5.45837602     -2.72819888     -2.72819888      4.02790111
   Si     -4.07443238     -4.07443238     -4.07443238      3.90469478
   Si     -1.36525323     -1.36525323     -4.09499871      4.01058061
   Si     -1.36525323     -4.09499871     -1.36525323      4.01058061
   Si     -4.09499871     -1.36525323     -1.36525323      4.01058061
   Si     -5.45960254     -5.45960254      0.00003122      4.03775131
   Si     -2.72931279     -2.72931279      0.00093133      3.99759179
   Si     -2.73146660     -5.46072349      2.73146660      4.01221478
   Si     -5.46072349     -2.73146660      2.73146660      4.01221478
   Si     -4.09542122     -4.09542122      1.36407678      4.00796290
   Si     -1.36522184     -1.36522184      1.36522184      3.99459807
   Si     -1.36407678     -4.09542122      4.09542122      4.00796290
   Si     -4.09542122     -1.36407678      4.09542122      4.00796290
   Si     -5.44245452     -5.44245452      5.44245452      3.90093963
   Si     -2.73146660     -2.73146660      5.46072349      4.01221478
   Si     -2.71102633     -5.44155812      8.17028452      3.92282456
   Si     -5.44155812     -2.71102633      8.17028452      3.92282456
   Si     -4.09633142     -4.09633142      6.82631851      4.04474470
   Si     -1.36497146     -1.36497146      6.82759771      4.02489115
   Si     -1.38393281     -4.07721193      9.53754123      3.93208062
   Si     -4.07721193     -1.38393281      9.53754123      3.93208062
   Si     -2.71128272     -2.71128272     10.90224630      3.94484715
   Si     -1.36646255     -1.36646255     12.25567199      3.81323341
   Si     -1.36646255      1.36646255    -12.25567199      3.81323341
   Si     -2.71128272      2.71128272    -10.90224630      3.94484715
   Si     -2.73035756     -0.00010365     -8.19167094      4.03704367
   Si     -5.44155812      2.71102633     -8.17028452      3.92282456
   Si     -4.07721193      1.38393281     -9.53754123      3.93208062
   Si     -1.38393281      4.07721193     -9.53754123      3.93208062
   Si     -1.36497146      1.36497146     -6.82759771      4.02489115
   Si     -4.09633142      4.09633142     -6.82631851      4.04474470
   Si     -5.45960254      0.00003122     -5.45960254      4.03775131
   Si     -2.73146660      2.73146660     -5.46072349      4.01221478
   Si     -2.72931279      0.00093133     -2.72931279      3.99759179
   Si     -5.46072349      2.73146660     -2.73146660      4.01221478
   Si     -4.09542122      1.36407678     -4.09542122      4.00796290
   Si     -1.36407678      4.09542122     -4.09542122      4.00796290
   Si     -1.36522184      1.36522184     -1.36522184      3.99459807
   Si     -4.09542122      4.09542122     -1.36407678      4.00796290
   Si     -5.45929863     -0.00000000      0.00000000      3.99436424
   Si     -2.72931279      2.72931279     -0.00093133      3.99759179
   Si     -2.72931279     -0.00093133      2.72931279      3.99759179
   Si     -5.45837602      2.72819888      2.72819888      4.02790111
   Si     -4.09499871      1.36525323      1.36525323      4.01058061
   Si     -1.36525323      4.09499871      1.36525323      4.01058061
   Si     -1.36525323      1.36525323      4.09499871      4.01058061
   Si     -4.07443238      4.07443238      4.07443238      3.90469478
   Si     -5.45960254     -0.00003122      5.45960254      4.03775131
   Si     -2.72819888      2.72819888      5.45837602      4.02790111
   Si     -2.73035756      0.00010365      8.19167094      4.03704367
   Si     -4.07460048      1.34641309      6.80536271      3.90090687
   Si     -1.34641309      4.07460048      6.80536271      3.90090687
   Si     -1.34465913      1.34465913      9.54011693      3.91606084
   Si     -2.71102633      5.44155812     -8.17028452      3.92282456
   Si     -1.38235508      6.80564131     -6.80564131      3.92207522
   Si     -5.44245452      5.44245452     -5.44245452      3.90093963
   Si     -2.71102633      8.17028452     -5.44155812      3.92282456
   Si     -2.73146660      5.46072349     -2.73146660      4.01221478
   Si     -5.44155812      8.17028452     -2.71102633      3.92282456
   Si     -4.09633142      6.82631851     -4.09633142      4.04474470
   Si     -1.38393281      9.53754123     -4.07721193      3.93208062
   Si     -1.36497146      6.82759771     -1.36497146      4.02489115
   Si     -4.07721193      9.53754123     -1.38393281      3.93208062
   Si     -5.45960254      5.45960254     -0.00003122      4.03775131
   Si     -2.73035756      8.19167094      0.00010365      4.03704367
   Si     -2.72819888      5.45837602      2.72819888      4.02790111
   Si     -4.07460048      6.80536271      1.34641309      3.90090687
   Si     -1.34465913      9.54011693      1.34465913      3.91606084
   Si     -1.34641309      6.80536271      4.07460048      3.90090687
   Si     -2.71128272     10.90224630     -2.71128272      3.94484715
   Si     -1.36646255     12.25567199     -1.36646255      3.81323341
   Si      1.36646255    -12.25567199     -1.36646255      3.81323341
   Si      1.38235508     -6.80564131     -6.80564131      3.92207522
   Si      2.71102633     -8.17028452     -5.44155812      3.92282456
   Si      2.71128272    -10.90224630     -2.71128272      3.94484715
   Si     -0.00010365     -8.19167094     -2.73035756      4.03704367
   Si      1.38393281     -9.53754123     -4.07721193      3.93208062
   Si      4.09633142     -6.82631851     -4.09633142      4.04474470
   Si      4.07721193     -9.53754123     -1.38393281      3.93208062
   Si      1.36497146     -6.82759771     -1.36497146      4.02489115
   Si      0.00000000    -10.92830710      0.00000000      4.06639496
   Si      2.73035756     -8.19167094      0.00010365      4.03704367
   Si      0.00010365     -8.19167094      2.73035756      4.03704367
   Si      1.34465913     -9.54011693      1.34465913      3.91606084
   Si      4.07460048     -6.80536271      1.34641309      3.90090687
   Si      1.34641309     -6.80536271      4.07460048      3.90090687
   Si      1.36646255     -1.36646255    -12.25567199      3.81323341
   Si      2.71128272     -2.71128272    -10.90224630      3.94484715
   Si      2.71102633     -5.44155812     -8.17028452      3.92282456
   Si     -0.00010365     -2.73035756     -8.19167094      4.03704367
   Si      1.38393281     -4.07721193     -9.53754123      3.93208062
   Si      4.07721193     -1.38393281     -9.53754123      3.93208062
   Si      4.09633142     -4.09633142     -6.82631851      4.04474470
   Si      1.36497146     -1.36497146     -6.82759771      4.02489115
   Si      0.00003122     -5.45960254     -5.45960254      4.03775131
   Si      2.73146660     -2.73146660     -5.46072349      4.01221478
   Si      2.73146660     -5.46072349     -2.73146660      4.01221478
   Si      0.00093133     -2.72931279     -2.72931279      3.99759179
   Si      1.36407678     -4.09542122     -4.09542122      4.00796290
   Si      4.09542122     -1.36407678     -4.09542122      4.00796290
   Si      4.09542122     -4.09542122     -1.36407678      4.00796290
   Si      1.36522184     -1.36522184     -1.36522184      3.99459807
   Si      0.00000000     -5.45929863     -0.00000000      3.99436424
   Si      2.72931279     -2.72931279     -0.00093133      3.99759179
   Si      2.72819888     -5.45837602      2.72819888      4.02790111
   Si     -0.00093133     -2.72931279      2.72931279      3.99759179
   Si      1.36525323     -4.09499871      1.36525323      4.01058061
   Si      4.09499871     -1.36525323      1.36525323      4.01058061
   Si      4.07443238     -4.07443238      4.07443238      3.90469478
   Si      1.36525323     -1.36525323      4.09499871      4.01058061
   Si     -0.00003122     -5.45960254      5.45960254      4.03775131
   Si      2.72819888     -2.72819888      5.45837602      4.02790111
   Si      0.00010365     -2.73035756      8.19167094      4.03704367
   Si      1.34641309     -4.07460048      6.80536271      3.90090687
   Si      4.07460048     -1.34641309      6.80536271      3.90090687
   Si      1.34465913     -1.34465913      9.54011693      3.91606084
   Si      0.00000000     -0.00000000    -10.92830710      4.06639496
   Si      2.73035756      0.00010365     -8.19167094      4.03704367
   Si      0.00010365      2.73035756     -8.19167094      4.03704367
   Si      1.34465913      1.34465913     -9.54011693      3.91606084
   Si      4.07460048      1.34641309     -6.80536271      3.90090687
   Si      1.34641309      4.07460048     -6.80536271      3.90090687
   Si      0.00000000     -0.00000000     -5.45929863      3.99436424
   Si      2.72819888      2.72819888     -5.45837602      4.02790111
   Si      2.72931279     -0.00093133     -2.72931279      3.99759179
   Si     -0.00093133      2.72931279     -2.72931279      3.99759179
   Si      1.36525323      1.36525323     -4.09499871      4.01058061
   Si      4.07443238      4.07443238     -4.07443238      3.90469478
   Si      4.09499871      1.36525323     -1.36525323      4.01058061
   Si      1.36525323      4.09499871     -1.36525323      4.01058061
   Si      0.00000000     -0.00000000      0.00000000      4.00209787
   Si      2.72931279      2.72931279      0.00093133      3.99759179
   Si      2.72931279      0.00093133      2.72931279      3.99759179
   Si      0.00093133      2.72931279      2.72931279      3.99759179
   Si      1.36522184      1.36522184      1.36522184      3.99459807
   Si      4.09542122      4.09542122      1.36407678      4.00796290
   Si      4.09542122      1.36407678      4.09542122      4.00796290
   Si      1.36407678      4.09542122      4.09542122      4.00796290
   Si     -0.00000000      0.00000000      5.45929863      3.99436424
   Si      2.73146660      2.73146660      5.46072349      4.01221478
   Si      2.73035756     -0.00010365      8.19167094      4.03704367
   Si     -0.00010365      2.73035756      8.19167094      4.03704367
   Si      1.36497146      1.36497146      6.82759771      4.02489115
   Si      4.09633142      4.09633142      6.82631851      4.04474470
   Si      4.07721193      1.38393281      9.53754123      3.93208062
   Si      1.38393281      4.07721193      9.53754123      3.93208062
   Si      0.00000000     -0.00000000     10.92830710      4.06639496
   Si      2.71128272      2.71128272     10.90224630      3.94484715
   Si      1.36646255      1.36646255     12.25567199      3.81323341
   Si     -0.00003122      5.45960254     -5.45960254      4.03775131
   Si      2.72819888      5.45837602     -2.72819888      4.02790111
   Si      0.00010365      8.19167094     -2.73035756      4.03704367
   Si      1.34641309      6.80536271     -4.07460048      3.90090687
   Si      4.07460048      6.80536271     -1.34641309      3.90090687
   Si      1.34465913      9.54011693     -1.34465913      3.91606084
   Si     -0.00000000      5.45929863     -0.00000000      3.99436424
   Si      2.73035756      8.19167094     -0.00010365      4.03704367
   Si      2.73146660      5.46072349      2.73146660      4.01221478
   Si     -0.00010365      8.19167094      2.73035756      4.03704367
   Si      1.36497146      6.82759771      1.36497146      4.02489115
   Si      4.07721193      9.53754123      1.38393281      3.93208062
   Si      4.09633142      6.82631851      4.09633142      4.04474470
   Si      1.38393281      9.53754123      4.07721193      3.93208062
   Si      0.00003122      5.45960254      5.45960254      4.03775131
   Si      2.71102633      8.17028452      5.44155812      3.92282456
   Si      2.71102633      5.44155812      8.17028452      3.92282456
   Si      1.38235508      6.80564131      6.80564131      3.92207522
   Si     -0.00000000     10.92830710      0.00000000      4.06639496
   Si      2.71128272     10.90224630      2.71128272      3.94484715
   Si      1.36646255     12.25567199      1.36646255      3.81323341
   Si      5.44155812     -8.17028452     -2.71102633      3.92282456
   Si      6.80564131     -6.80564131     -1.38235508      3.92207522
   Si      5.44155812     -2.71102633     -8.17028452      3.92282456
   Si      6.80564131     -1.38235508     -6.80564131      3.92207522
   Si      5.44245452     -5.44245452     -5.44245452      3.90093963
   Si      8.17028452     -2.71102633     -5.44155812      3.92282456
   Si      8.17028452     -5.44155812     -2.71102633      3.92282456
   Si      5.46072349     -2.73146660     -2.73146660      4.01221478
   Si      6.82631851     -4.09633142     -4.09633142      4.04474470
   Si      9.53754123     -1.38393281     -4.07721193      3.93208062
   Si      9.53754123     -4.07721193     -1.38393281      3.93208062
   Si      6.82759771     -1.36497146     -1.36497146      4.02489115
   Si      5.45960254     -5.45960254     -0.00003122      4.03775131
   Si      8.19167094     -2.73035756      0.00010365      4.03704367
   Si      5.45837602     -2.72819888      2.72819888      4.02790111
   Si      6.80536271     -4.07460048      1.34641309      3.90090687
   Si      9.54011693     -1.34465913      1.34465913      3.91606084
   Si      6.80536271     -1.34641309      4.07460048      3.90090687
   Si      5.45960254     -0.00003122     -5.45960254      4.03775131
   Si      8.19167094      0.00010365     -2.73035756      4.03704367
   Si      5.45837602      2.72819888     -2.72819888      4.02790111
   Si      6.80536271      1.34641309     -4.07460048      3.90090687
   Si      9.54011693      1.34465913     -1.34465913      3.91606084
   Si      6.80536271      4.07460048     -1.34641309      3.90090687
   Si      5.45929863      0.00000000     -0.00000000      3.99436424
   Si      8.19167094      2.73035756     -0.00010365      4.03704367
   Si      8.19167094     -0.00010365      2.73035756      4.03704367
   Si      5.46072349      2.73146660      2.73146660      4.01221478
   Si      6.82759771      1.36497146      1.36497146      4.02489115
   Si      9.53754123      4.07721193      1.38393281      3.93208062
   Si      9.53754123      1.38393281      4.07721193      3.93208062
   Si      6.82631851      4.09633142      4.09633142      4.04474470
   Si      5.45960254      0.00003122      5.45960254      4.03775131
   Si      8.17028452      2.71102633      5.44155812      3.92282456
   Si      5.44155812      2.71102633      8.17028452      3.92282456
   Si      6.80564131      1.38235508      6.80564131      3.92207522
   Si      5.45960254      5.45960254      0.00003122      4.03775131
   Si      8.17028452      5.44155812      2.71102633      3.92282456
   Si      5.44155812      8.17028452      2.71102633      3.92282456
   Si      6.80564131      6.80564131      1.38235508      3.92207522
   Si      5.44245452      5.44245452      5.44245452      3.90093963
   Si     10.90224630     -2.71128272     -2.71128272      3.94484715
   Si     12.25567199     -1.36646255     -1.36646255      3.81323341
   Si     10.92830710     -0.00000000      0.00000000      4.06639496
   Si     10.90224630      2.71128272      2.71128272      3.94484715
   Si     12.25567199      1.36646255      1.36646255      3.81323341
    H     -7.67295210     -7.67295210      0.51307221      1.05689939
    H     -7.67367208     -2.21453727     -4.94248510      1.05821130
    H     -7.67367208     -4.94248510     -2.21453727      1.05821130
    H    -10.40343780     -2.21568694     -2.21568694      1.05822872
    H     -9.03791363     -6.30864909      3.58028819      1.05687712
    H    -11.76572000     -3.58158213      3.58158213      1.05594852
    H    -10.40025962     -4.94665643      0.51162184      1.05664853
    H    -10.40025962     -0.51162184      4.94665643      1.05664853
    H     -9.03791363     -3.58028819      6.30864909      1.05687712
    H     -7.67295210     -0.51307221      7.67295210      1.05689939
    H     -7.67295210      0.51307221     -7.67295210      1.05689939
    H     -9.03791363      3.58028819     -6.30864909      1.05687712
    H    -11.76572000      3.58158213     -3.58158213      1.05594852
    H    -10.40025962      0.51162184     -4.94665643      1.05664853
    H    -10.40025962      4.94665643     -0.51162184      1.05664853
    H    -10.40343780      2.21568694      2.21568694      1.05822872
    H     -7.67367208      4.94248510      2.21453727      1.05821130
    H     -7.67367208      2.21453727      4.94248510      1.05821130
    H     -9.03791363      6.30864909     -3.58028819      1.05687712
    H     -7.67295210      7.67295210     -0.51307221      1.05689939
    H     -2.21453727     -7.67367208     -4.94248510      1.05821130
    H     -2.21568694    -10.40343780     -2.21568694      1.05822872
    H     -4.94248510     -7.67367208     -2.21453727      1.05821130
    H     -3.58158213    -11.76572000      3.58158213      1.05594852
    H     -6.30864909     -9.03791363      3.58028819      1.05687712
    H     -4.94665643    -10.40025962      0.51162184      1.05664853
    H     -0.51162184    -10.40025962      4.94665643      1.05664853
    H     -3.58028819     -9.03791363      6.30864909      1.05687712
    H     -0.51307221     -7.67295210      7.67295210      1.05689939
    H     -2.21568694     -2.21568694    -10.40343780      1.05822872
    H     -2.21453727     -4.94248510     -7.67367208      1.05821130
    H     -4.94248510     -2.21453727     -7.67367208      1.05821130
    H     -4.94251147     -4.94251147     -4.94251147      1.05821570
    H     -6.31065834     -6.31065834      6.31065834      1.05788955
    H     -3.58028819     -6.30864909      9.03791363      1.05687712
    H     -6.30864909     -3.58028819      9.03791363      1.05687712
    H     -0.51162184     -4.94665643     10.40025962      1.05664853
    H     -4.94665643     -0.51162184     10.40025962      1.05664853
    H     -3.58158213     -3.58158213     11.76572000      1.05594852
    H     -3.58158213      3.58158213    -11.76572000      1.05594852
    H     -6.30864909      3.58028819     -9.03791363      1.05687712
    H     -4.94665643      0.51162184    -10.40025962      1.05664853
    H     -0.51162184      4.94665643    -10.40025962      1.05664853
    H     -4.94251147      4.94251147      4.94251147      1.05821570
    H     -4.94248510      2.21453727      7.67367208      1.05821130
    H     -2.21453727      4.94248510      7.67367208      1.05821130
    H     -2.21568694      2.21568694     10.40343780      1.05822872
    H     -3.58028819      6.30864909     -9.03791363      1.05687712
    H     -0.51307221      7.67295210     -7.67295210      1.05689939
    H     -6.31065834      6.31065834     -6.31065834      1.05788955
    H     -3.58028819      9.03791363     -6.30864909      1.05687712
    H     -6.30864909      9.03791363     -3.58028819      1.05687712
    H     -0.51162184     10.40025962     -4.94665643      1.05664853
    H     -4.94665643     10.40025962     -0.51162184      1.05664853
    H     -4.94248510      7.67367208      2.21453727      1.05821130
    H     -2.21568694     10.40343780      2.21568694      1.05822872
    H     -2.21453727      7.67367208      4.94248510      1.05821130
    H     -3.58158213     11.76572000     -3.58158213      1.05594852
    H      0.51307221     -7.67295210     -7.67295210      1.05689939
    H      3.58028819     -9.03791363     -6.30864909      1.05687712
    H      3.58158213    -11.76572000     -3.58158213      1.05594852
    H      0.51162184    -10.40025962     -4.94665643      1.05664853
    H      4.94665643    -10.40025962     -0.51162184      1.05664853
    H      2.21568694    -10.40343780      2.21568694      1.05822872
    H      4.94248510     -7.67367208      2.21453727      1.05821130
    H      2.21453727     -7.67367208      4.94248510      1.05821130
    H      3.58158213     -3.58158213    -11.76572000      1.05594852
    H      3.58028819     -6.30864909     -9.03791363      1.05687712
    H      0.51162184     -4.94665643    -10.40025962      1.05664853
    H      4.94665643     -0.51162184    -10.40025962      1.05664853
    H      4.94251147     -4.94251147      4.94251147      1.05821570
    H      2.21453727     -4.94248510      7.67367208      1.05821130
    H      4.94248510     -2.21453727      7.67367208      1.05821130
    H      2.21568694     -2.21568694     10.40343780      1.05822872
    H      2.21568694      2.21568694    -10.40343780      1.05822872
    H      4.94248510      2.21453727     -7.67367208      1.05821130
    H      2.21453727      4.94248510     -7.67367208      1.05821130
    H      4.94251147      4.94251147     -4.94251147      1.05821570
    H      4.94665643      0.51162184     10.40025962      1.05664853
    H      0.51162184      4.94665643     10.40025962      1.05664853
    H      3.58158213      3.58158213     11.76572000      1.05594852
    H      2.21453727      7.67367208     -4.94248510      1.05821130
    H      4.94248510      7.67367208     -2.21453727      1.05821130
    H      2.21568694     10.40343780     -2.21568694      1.05822872
    H      4.94665643     10.40025962      0.51162184      1.05664853
    H      0.51162184     10.40025962      4.94665643      1.05664853
    H      3.58028819      9.03791363      6.30864909      1.05687712
    H      3.58028819      6.30864909      9.03791363      1.05687712
    H      0.51307221      7.67295210      7.67295210      1.05689939
    H      3.58158213     11.76572000      3.58158213      1.05594852
    H      6.30864909     -9.03791363     -3.58028819      1.05687712
    H      7.67295210     -7.67295210     -0.51307221      1.05689939
    H      6.30864909     -3.58028819     -9.03791363      1.05687712
    H      7.67295210     -0.51307221     -7.67295210      1.05689939
    H      6.31065834     -6.31065834     -6.31065834      1.05788955
    H      9.03791363     -3.58028819     -6.30864909      1.05687712
    H      9.03791363     -6.30864909     -3.58028819      1.05687712
    H     10.40025962     -0.51162184     -4.94665643      1.05664853
    H     10.40025962     -4.94665643     -0.51162184      1.05664853
    H      7.67367208     -4.94248510      2.21453727      1.05821130
    H     10.40343780     -2.21568694      2.21568694      1.05822872
    H      7.67367208     -2.21453727      4.94248510      1.05821130
    H      7.67367208      2.21453727     -4.94248510      1.05821130
    H     10.40343780      2.21568694     -2.21568694      1.05822872
    H      7.67367208      4.94248510     -2.21453727      1.05821130
    H     10.40025962      4.94665643      0.51162184      1.05664853
    H     10.40025962      0.51162184      4.94665643      1.05664853
    H      9.03791363      3.58028819      6.30864909      1.05687712
    H      6.30864909      3.58028819      9.03791363      1.05687712
    H      7.67295210      0.51307221      7.67295210      1.05689939
    H      9.03791363      6.30864909      3.58028819      1.05687712
    H      6.30864909      9.03791363      3.58028819      1.05687712
    H      7.67295210      7.67295210      0.51307221      1.05689939
    H      6.31065834      6.31065834      6.31065834      1.05788955
    H     11.76572000     -3.58158213     -3.58158213      1.05594852
    H     11.76572000      3.58158213      3.58158213      1.05594852
    H    -13.14115755     -0.51258008      2.22181160      1.06860802
    H    -13.14115755     -2.22181160      0.51258008      1.06860802
    H    -13.14115755      0.51258008     -2.22181160      1.06860802
    H    -13.14115755      2.22181160     -0.51258008      1.06860802
    H     -2.22181160    -13.14115755      0.51258008      1.06860802
    H     -0.51258008    -13.14115755      2.22181160      1.06860802
    H     -0.51258008     -2.22181160     13.14115755      1.06860802
    H     -2.22181160     -0.51258008     13.14115755      1.06860802
    H     -0.51258008      2.22181160    -13.14115755      1.06860802
    H     -2.22181160      0.51258008    -13.14115755      1.06860802
    H     -2.22181160     13.14115755     -0.51258008      1.06860802
    H     -0.51258008     13.14115755     -2.22181160      1.06860802
    H      2.22181160    -13.14115755     -0.51258008      1.06860802
    H      0.51258008    -13.14115755     -2.22181160      1.06860802
    H      0.51258008     -2.22181160    -13.14115755      1.06860802
    H      2.22181160     -0.51258008    -13.14115755      1.06860802
    H      2.22181160      0.51258008     13.14115755      1.06860802
    H      0.51258008      2.22181160     13.14115755      1.06860802
    H      0.51258008     13.14115755      2.22181160      1.06860802
    H      2.22181160     13.14115755      0.51258008      1.06860802
    H     13.14115755     -0.51258008     -2.22181160      1.06860802
    H     13.14115755     -2.22181160     -0.51258008      1.06860802
    H     13.14115755      2.22181160      0.51258008      1.06860802
    H     13.14115755      0.51258008      2.22181160      1.06860802

