224

C 0.533868194 1.123394966 0.768665016
C 0.534083307 13.457695961 0.768665016
C 14.775382042 1.123394966 0.768665016
C 14.775596619 13.457695961 0.768665016
C 1.614446282 3.139623165 0.76744318
C 1.614661455 15.473923683 0.76744318
C 15.855959892 3.139623165 0.76744318
C 15.856175423 15.473923683 0.76744318
C 5.242395878 1.123572469 0.768111587
C 5.242610931 13.457873344 0.768111587
C 19.483909607 1.123572469 0.768111587
C 19.484125137 13.457873344 0.768111587
C 4.162591457 3.140280724 0.767353773
C 4.162806511 15.474580765 0.767353773
C 18.404104233 3.140280724 0.767353773
C 18.404319763 15.474580765 0.767353773
C 7.654754162 1.122888803 0.768096566
C 7.654969215 13.45718956 0.768096566
C 21.896266937 1.122888803 0.768096566
C 21.896482468 13.45718956 0.768096566
C 6.448997974 3.212173462 0.767578363
C 6.449213028 15.546474457 0.767578363
C 20.690509796 3.212173462 0.767578363
C 20.690725327 15.546474457 0.767578363
C 8.735383987 3.139193058 0.76745224
C 8.735599518 15.473493576 0.76745224
C 22.976896286 3.139193058 0.76745224
C 22.977111816 15.473493576 0.76745224
C 12.363251686 1.123875022 0.768511415
C 12.363466263 13.458174706 0.768511415
C 26.604764938 1.123875022 0.768511415
C 26.604980469 13.458174706 0.768511415
C 11.283407211 3.140650272 0.767367065
C 11.283622742 15.474951744 0.767367065
C 25.524921417 3.140650272 0.767367065
C 25.525136948 15.474951744 0.767367065
C 13.569490433 3.212502956 0.767520845
C 13.569705009 15.546804428 0.767520845
C 27.811004639 3.212502956 0.767520845
C 27.811220169 15.546804428 0.767520845
C 2.887485266 5.346868515 0.767296672
C 2.887700558 17.68116951 0.767296672
C 17.12899971 5.346868515 0.767296672
C 17.12921524 17.68116951 0.767296672
C 1.680669665 7.290212154 0.768490195
C 1.680884838 19.624511719 0.768490195
C 15.922182083 7.290212154 0.768490195
C 15.922397614 19.624511719 0.768490195
C 0.599756002 9.306435585 0.767276943
C 0.599971116 21.640737534 0.767276943
C 14.841270447 9.306435585 0.767276943
C 14.841485977 21.640737534 0.767276943
C 4.092783928 7.291118622 0.767931223
C 4.092998981 19.625419617 0.767931223
C 18.33429718 7.291118622 0.767931223
C 18.334510803 19.625419617 0.767931223
C 2.886330843 9.3796978 0.766994774
C 2.886546135 21.713998795 0.766994774
C 17.127845764 9.3796978 0.766994774
C 17.128061295 21.713998795 0.766994774
C 5.17225647 9.308030128 0.767115533
C 5.172471523 21.642332077 0.767115533
C 19.413770676 9.308030128 0.767115533
C 19.413986206 21.642332077 0.767115533
C 10.008368492 5.346626759 0.767453849
C 10.008583069 17.680927277 0.767453849
C 24.249883652 5.346626759 0.767453849
C 24.250099182 17.680927277 0.767453849
C 8.801161766 7.289842129 0.767943919
C 8.801377296 19.6241436 0.767943919
C 23.042675018 7.289842129 0.767943919
C 23.042888641 19.6241436 0.767943919
C 7.72013998 9.305966377 0.76715672
C 7.720355511 21.640266418 0.76715672
C 21.961652756 9.305966377 0.76715672
C 21.961868286 21.640266418 0.76715672
C 6.448115826 11.5137043 0.767364919
C 6.448330879 23.848005295 0.767364919
C 20.689628601 11.5137043 0.767364919
C 20.689844131 23.848005295 0.767364919
C 11.21334362 7.290782928 0.768529534
C 11.213559151 19.625083923 0.768529534
C 25.454856873 7.290782928 0.768529534
C 25.455070496 19.625083923 0.768529534
C 10.006632805 9.379339218 0.767235398
C 10.006847382 21.71364212 0.767235398
C 24.248147964 9.379339218 0.767235398
C 24.248363495 21.71364212 0.767235398
C 12.29285717 9.307836533 0.767406404
C 12.293072701 21.642137527 0.767406404
C 26.534370422 9.307836533 0.767406404
C 26.534585953 21.642137527 0.767406404
C 13.568642616 11.514191628 0.767765582
C 13.568857193 23.848491669 0.767765582
C 27.810153961 11.514191628 0.767765582
C 27.810369492 23.848491669 0.767765582
N 5.262805939 12.127648354 0.768061817
N 5.263020992 24.461950302 0.768061817
N 19.504318237 12.127648354 0.768061817
N 19.504533768 24.461950302 0.768061817
N 6.446792603 10.042572975 0.767089009
N 6.447008133 22.376873016 0.767089009
N 20.688306808 10.042572975 0.767089009
N 20.688522339 22.376873016 0.767089009
N 7.65907383 7.972373962 0.767471135
N 7.659288883 20.306674957 0.767471135
N 21.900587082 7.972373962 0.767471135
N 21.900802612 20.306674957 0.767471135
N 8.822600365 5.959916592 0.767198682
N 8.822815895 18.294218063 0.767198682
N 23.064113617 5.959916592 0.767198682
N 23.06432724 18.294218063 0.767198682
N 7.633887291 12.127054214 0.767013609
N 7.634102345 24.461357117 0.767013609
N 21.875400543 12.127054214 0.767013609
N 21.875616074 24.461357117 0.767013609
N 8.844120979 10.025930405 0.766455054
N 8.84433651 22.3602314 0.766455054
N 23.085634232 10.025930405 0.766455054
N 23.085847855 22.3602314 0.766455054
N 10.006933212 7.986707687 0.768930376
N 10.007148743 20.321006775 0.768930376
N 24.248447418 7.986707687 0.768930376
N 24.248662949 20.321006775 0.768930376
N 11.193739891 5.96070385 0.767974973
N 11.193955421 18.295003891 0.767974973
N 25.435253143 5.96070385 0.767974973
N 25.435466766 18.295003891 0.767974973
N 11.168340683 10.027446747 0.765936911
N 11.168556213 22.361747742 0.765936911
N 25.409854889 10.027446747 0.765936911
N 25.410070419 22.361747742 0.765936911
N 12.354455948 7.974376202 0.768616319
N 12.354670525 20.308677673 0.768616319
N 26.595968246 7.974376202 0.768616319
N 26.596183777 20.308677673 0.768616319
N 13.567555428 10.042829514 0.767315686
N 13.567770004 22.377130508 0.767315686
N 27.809070587 10.042829514 0.767315686
N 27.809286118 22.377130508 0.767315686
N 12.383378029 12.128255844 0.76803422
N 12.383592606 24.462556839 0.76803422
N 26.624891281 12.128255844 0.76803422
N 26.625106812 24.462556839 0.76803422
N 0.490250796 3.859496355 0.766256094
N 0.490465939 16.193798065 0.766256094
N 14.731764793 3.859496355 0.766256094
N 14.73197937 16.193798065 0.766256094
N 1.675517321 1.80613935 0.768475592
N 1.675732493 14.140439987 0.768475592
N 15.917031288 1.80613935 0.768475592
N 15.917246819 14.140439987 0.768475592
N 2.888237715 3.875686407 0.76713562
N 2.888452768 16.209985733 0.76713562
N 17.129749298 3.875686407 0.76713562
N 17.129964828 16.209985733 0.76713562
N 5.28696537 3.859993219 0.767265379
N 5.287180424 16.194293976 0.767265379
N 19.528478622 3.859993219 0.767265379
N 19.528694153 16.194293976 0.767265379
N 7.611298561 3.858881712 0.766457617
N 7.611513615 16.193183899 0.766457617
N 21.852811813 3.858881712 0.766457617
N 21.853027344 16.193183899 0.766457617
N 8.796573639 1.805378795 0.768362761
N 8.796789169 14.139679909 0.768362761
N 23.038087845 1.805378795 0.768362761
N 23.038301468 14.139679909 0.768362761
N 6.44875288 1.819428086 0.768722415
N 6.448967934 14.153728485 0.768722415
N 20.690267563 1.819428086 0.768722415
N 20.690481186 14.153728485 0.768722415
N 4.101173401 1.806738973 0.767398536
N 4.101388454 14.141039848 0.767398536
N 18.342687607 1.806738973 0.767398536
N 18.34290123 14.141039848 0.767398536
N 10.009165764 3.875404119 0.767222583
N 10.009380341 16.209703445 0.767222583
N 24.250677109 3.875404119 0.767222583
N 24.250892639 16.209703445 0.767222583
N 11.221961021 1.807146907 0.767918229
N 11.222176552 14.141447067 0.767918229
N 25.463474274 1.807146907 0.767918229
N 25.463687897 14.141447067 0.767918229
N 12.407753944 3.860243559 0.766520202
N 12.407968521 16.194543839 0.766520202
N 26.649265289 3.860243559 0.766520202
N 26.64948082 16.194543839 0.766520202
N 13.569390297 1.819973826 0.76935333
N 13.569605827 14.15427494 0.76935333
N 27.810905457 1.819973826 0.76935333
N 27.81111908 14.15427494 0.76935333
N 5.233824253 7.974504948 0.768317521
N 5.234039307 20.308805466 0.768317521
N 19.475337982 7.974504948 0.768317521
N 19.475553513 20.308805466 0.768317521
N 4.047917366 10.027729034 0.765393138
N 4.04813242 22.362030029 0.765393138
N 18.289432526 10.027729034 0.765393138
N 18.289648056 22.362030029 0.765393138
N 0.512951851 12.127628326 0.767933846
N 0.513167024 24.461929321 0.767933846
N 14.754466057 12.127628326 0.767933846
N 14.754680634 24.461929321 0.767933846
N 1.723754644 10.02644825 0.76615721
N 1.723969817 22.360750198 0.76615721
N 15.965269089 10.02644825 0.76615721
N 15.965484619 22.360750198 0.76615721
N 2.886469364 7.987003803 0.768973827
N 2.886684656 20.321304321 0.768973827
N 17.127983093 7.987003803 0.768973827
N 17.128198624 20.321304321 0.768973827
N 4.072827816 5.960972309 0.766309857
N 4.07304287 18.295272827 0.766309857
N 18.314342499 5.960972309 0.766309857
N 18.314556122 18.295272827 0.766309857
N 1.701708078 5.960151196 0.768494248
N 1.701923251 18.29445076 0.768494248
N 15.943221092 5.960151196 0.768494248
N 15.943436623 18.29445076 0.768494248
N 0.538750887 7.972904682 0.76796025
N 0.53896606 20.3072052 0.76796025
N 14.780264854 7.972904682 0.76796025
N 14.780479431 20.3072052 0.76796025

