 119

 Si        18.6524719700       18.6524719700       15.9215319600
 Si        18.6524719700       15.9215319600       18.6524719700
 Si        15.9215319600       18.6524719700       18.6524719700
 Si        17.2610682100       17.2610682100       20.0071138100
 Si        17.1391544100       14.5593720900       22.8608455900
 Si        14.5593720900       17.1391544100       22.8608455900
 Si        15.9078761600       15.9078761600       21.3974902200
 Si        18.6295738700       18.6295738700       21.3704261300
 Si        18.6025097800       15.9078761600       24.0921238400
 Si        15.9078761600       18.6025097800       24.0921238400
 Si        17.1391544100       17.1391544100       25.4406279100
 Si        17.1391544100       22.8608455900       14.5593720900
 Si        17.2610682100       20.0071138100       17.2610682100
 Si        14.5593720900       22.8608455900       17.1391544100
 Si        15.9078761600       21.3974902200       15.9078761600
 Si        18.6025097800       24.0921238400       15.9078761600
 Si        18.6295738700       21.3704261300       18.6295738700
 Si        15.9078761600       24.0921238400       18.6025097800
 Si        14.5735173200       20.0000000000       20.0000000000
 Si        17.2610682100       22.7389317900       19.9928861900
 Si        17.2610682100       19.9928861900       22.7389317900
 Si        15.9215319600       21.3475280300       21.3475280300
 Si        18.6524719700       24.0784680400       21.3475280300
 Si        18.6524719700       21.3475280300       24.0784680400
 Si        17.1391544100       25.4406279100       17.1391544100
 Si        22.8608455900       17.1391544100       14.5593720900
 Si        22.8608455900       14.5593720900       17.1391544100
 Si        20.0071138100       17.2610682100       17.2610682100
 Si        21.3974902200       15.9078761600       15.9078761600
 Si        24.0921238400       18.6025097800       15.9078761600
 Si        24.0921238400       15.9078761600       18.6025097800
 Si        21.3704261300       18.6295738700       18.6295738700
 Si        20.0000000000       14.5735173200       20.0000000000
 Si        22.7389317900       17.2610682100       19.9928861900
 Si        19.9928861900       17.2610682100       22.7389317900
 Si        21.3475280300       15.9215319600       21.3475280300
 Si        24.0784680400       18.6524719700       21.3475280300
 Si        21.3475280300       18.6524719700       24.0784680400
 Si        20.0000000000       20.0000000000       14.5735173200
 Si        22.7389317900       19.9928861900       17.2610682100
 Si        19.9928861900       22.7389317900       17.2610682100
 Si        21.3475280300       21.3475280300       15.9215319600
 Si        24.0784680400       21.3475280300       18.6524719700
 Si        21.3475280300       24.0784680400       18.6524719700
 Si        20.0000000000       20.0000000000       20.0000000000
 Si        22.7389317900       22.7389317900       20.0071138100
 Si        22.7389317900       20.0071138100       22.7389317900
 Si        20.0071138100       22.7389317900       22.7389317900
 Si        21.3704261300       21.3704261300       21.3704261300
 Si        24.0921238400       24.0921238400       21.3974902200
 Si        24.0921238400       21.3974902200       24.0921238400
 Si        21.3974902200       24.0921238400       24.0921238400
 Si        20.0000000000       20.0000000000       25.4264826800
 Si        22.8608455900       22.8608455900       25.4406279100
 Si        20.0000000000       25.4264826800       20.0000000000
 Si        22.8608455900       25.4406279100       22.8608455900
 Si        25.4406279100       17.1391544100       17.1391544100
 Si        25.4264826800       20.0000000000       20.0000000000
 Si        25.4406279100       22.8608455900       22.8608455900
  H        17.7839366400       17.7839366400       15.0553242600
  H        17.7839366400       15.0553242600       17.7839366400
  H        15.0553242600       17.7839366400       17.7839366400
  H        15.0439706100       15.0439706100       20.5222634000
  H        19.4777366000       15.0439706100       24.9560293900
  H        15.0439706100       19.4777366000       24.9560293900
  H        15.0439706100       20.5222634000       15.0439706100
  H        19.4777366000       24.9560293900       15.0439706100
  H        15.0439706100       24.9560293900       19.4777366000
  H        15.0553242600       22.2160633600       22.2160633600
  H        17.7839366400       24.9446757400       22.2160633600
  H        17.7839366400       22.2160633600       24.9446757400
  H        20.5222634000       15.0439706100       15.0439706100
  H        24.9560293900       19.4777366000       15.0439706100
  H        24.9560293900       15.0439706100       19.4777366000
  H        22.2160633600       15.0553242600       22.2160633600
  H        24.9446757400       17.7839366400       22.2160633600
  H        22.2160633600       17.7839366400       24.9446757400
  H        22.2160633600       22.2160633600       15.0553242600
  H        24.9446757400       22.2160633600       17.7839366400
  H        22.2160633600       24.9446757400       17.7839366400
  H        24.9560293900       24.9560293900       20.5222634000
  H        24.9560293900       20.5222634000       24.9560293900
  H        20.5222634000       24.9560293900       24.9560293900
  H        17.8278713000       13.4228777300       22.1721287000
  H        16.1685135500       13.9548733900       23.8314864500
  H        13.9548733900       16.1685135500       23.8314864500
  H        13.4228777300       17.8278713000       22.1721287000
  H        17.8278713000       17.8278713000       26.5771222700
  H        16.1685135500       16.1685135500       26.0451266100
  H        16.1685135500       23.8314864500       13.9548733900
  H        17.8278713000       22.1721287000       13.4228777300
  H        13.4228777300       22.1721287000       17.8278713000
  H        13.9548733900       23.8314864500       16.1685135500
  H        13.6798372200       19.1511881300       20.8488118700
  H        13.6798372200       20.8488118700       19.1511881300
  H        16.1685135500       26.0451266100       16.1685135500
  H        17.8278713000       26.5771222700       17.8278713000
  H        22.1721287000       17.8278713000       13.4228777300
  H        23.8314864500       16.1685135500       13.9548733900
  H        23.8314864500       13.9548733900       16.1685135500
  H        22.1721287000       13.4228777300       17.8278713000
  H        20.8488118700       13.6798372200       19.1511881300
  H        19.1511881300       13.6798372200       20.8488118700
  H        19.1511881300       20.8488118700       13.6798372200
  H        20.8488118700       19.1511881300       13.6798372200
  H        19.1511881300       19.1511881300       26.3201627800
  H        20.8488118700       20.8488118700       26.3201627800
  H        23.8314864500       23.8314864500       26.0451266100
  H        22.1721287000       22.1721287000       26.5771222700
  H        20.8488118700       26.3201627800       20.8488118700
  H        19.1511881300       26.3201627800       19.1511881300
  H        22.1721287000       26.5771222700       22.1721287000
  H        23.8314864500       26.0451266100       23.8314864500
  H        26.5771222700       17.8278713000       17.8278713000
  H        26.0451266100       16.1685135500       16.1685135500
  H        26.3201627800       19.1511881300       19.1511881300
  H        26.3201627800       20.8488118700       20.8488118700
  H        26.0451266100       23.8314864500       23.8314864500
  H        26.5771222700       22.1721287000       22.1721287000
